<?xml version="1.0" encoding="UTF-8"?>

<!-- generated on 2025-01-22 14:16:21 by Eclipse SUMO netedit Version 1.21.0
<neteditConfiguration xmlns:xsi="http://www.w3.org/2001/XMLSchema-instance" xsi:noNamespaceSchemaLocation="http://sumo.dlr.de/xsd/neteditConfiguration.xsd">

    <input>
        <sumo-net-file value="C:\Users\pc\Documents\Trafic\data\sumo\new\networkss.net.xml"/>
    </input>

    <output>
        <output-file value="C:\Users\pc\Documents\Trafic\data\sumo\new\networkss.net.xml"/>
    </output>

    <processing>
        <geometry.min-radius.fix.railways value="false"/>
        <geometry.max-grade.fix value="false"/>
        <offset.disable-normalization value="true"/>
        <lefthand value="0"/>
    </processing>

    <junctions>
        <no-turnarounds value="true"/>
        <junctions.corner-detail value="5"/>
        <junctions.internal-link-detail value="5"/>
        <junctions.limit-turn-speed value="5.50"/>
        <rectangular-lane-cut value="0"/>
    </junctions>

    <pedestrian>
        <walkingareas value="0"/>
    </pedestrian>

</neteditConfiguration>
-->

<net version="1.20" junctionCornerDetail="5" junctionLinkDetail="5" limitTurnSpeed="5.50" xmlns:xsi="http://www.w3.org/2001/XMLSchema-instance" xsi:noNamespaceSchemaLocation="http://sumo.dlr.de/xsd/net_file.xsd">

    <location netOffset="2600.00,3800.00" convBoundary="400.00,400.00,2401.60,7800.00" origBoundary="-2600.00,-3800.00,3200.00,4000.00" projParameter="!"/>

    <edge id=":-258.780.00_0" function="internal">
        <lane id=":-258.780.00_0_0" index="0" speed="13.89" length="8.27" shape="2176.00,4393.60 2184.00,4393.60"/>
        <lane id=":-258.780.00_0_1" index="1" speed="13.89" length="8.27" shape="2176.00,4396.80 2184.00,4396.80"/>
        <lane id=":-258.780.00_0_2" index="2" speed="13.89" length="8.27" shape="2176.00,4396.80 2178.46,4397.30 2180.00,4398.40 2181.54,4399.50 2184.00,4400.00"/>
    </edge>
    <edge id=":-260.380.00_0" function="internal">
        <lane id=":-260.380.00_0_0" index="0" speed="13.89" length="8.27" shape="2206.40,4376.00 2206.40,4384.00"/>
        <lane id=":-260.380.00_0_1" index="1" speed="13.89" length="8.27" shape="2203.20,4376.00 2203.20,4384.00"/>
        <lane id=":-260.380.00_0_2" index="2" speed="13.89" length="8.27" shape="2203.20,4376.00 2202.70,4378.46 2201.60,4380.00 2200.50,4381.54 2200.00,4384.00"/>
    </edge>
    <edge id=":-296.180.00_0" function="internal">
        <lane id=":-296.180.00_0_0" index="0" speed="13.89" length="8.27" shape="1406.40,4376.00 1406.40,4384.00"/>
        <lane id=":-296.180.00_0_1" index="1" speed="13.89" length="8.27" shape="1403.20,4376.00 1403.20,4384.00"/>
        <lane id=":-296.180.00_0_2" index="2" speed="13.89" length="8.27" shape="1403.20,4376.00 1402.70,4378.46 1401.60,4380.00 1400.50,4381.54 1400.00,4384.00"/>
    </edge>
    <edge id=":-302.580.00_0" function="internal">
        <lane id=":-302.580.00_0_0" index="0" speed="13.89" length="8.27" shape="1376.00,4393.60 1384.00,4393.60"/>
        <lane id=":-302.580.00_0_1" index="1" speed="13.89" length="8.27" shape="1376.00,4396.80 1384.00,4396.80"/>
        <lane id=":-302.580.00_0_2" index="2" speed="13.89" length="8.27" shape="1376.00,4396.80 1378.46,4397.30 1380.00,4398.40 1381.54,4399.50 1384.00,4400.00"/>
    </edge>
    <edge id=":-497.180.00_0" function="internal">
        <lane id=":-497.180.00_0_0" index="0" speed="13.89" length="8.27" shape="776.00,4393.60 784.00,4393.60"/>
        <lane id=":-497.180.00_0_1" index="1" speed="13.89" length="8.27" shape="776.00,4396.80 784.00,4396.80"/>
        <lane id=":-497.180.00_0_2" index="2" speed="13.89" length="8.27" shape="776.00,4396.80 778.46,4397.30 780.00,4398.40 781.54,4399.50 784.00,4400.00"/>
    </edge>
    <edge id=":-521.180.00_0" function="internal">
        <lane id=":-521.180.00_0_0" index="0" speed="13.89" length="8.27" shape="806.40,4376.00 806.40,4384.00"/>
        <lane id=":-521.180.00_0_1" index="1" speed="13.89" length="8.27" shape="803.20,4376.00 803.20,4384.00"/>
        <lane id=":-521.180.00_0_2" index="2" speed="13.89" length="8.27" shape="803.20,4376.00 802.70,4378.46 801.60,4380.00 800.50,4381.54 800.00,4384.00"/>
    </edge>
    <edge id=":-537.180.00_0" function="internal">
        <lane id=":-537.180.00_0_0" index="0" speed="13.89" length="8.27" shape="1424.00,4206.40 1416.00,4206.40"/>
        <lane id=":-537.180.00_0_1" index="1" speed="13.89" length="8.27" shape="1424.00,4203.20 1416.00,4203.20"/>
        <lane id=":-537.180.00_0_2" index="2" speed="13.89" length="8.27" shape="1424.00,4203.20 1421.54,4202.70 1420.00,4201.60 1418.46,4200.50 1416.00,4200.00"/>
    </edge>
    <edge id=":-539.380.00_0" function="internal">
        <lane id=":-539.380.00_0_0" index="0" speed="13.89" length="8.27" shape="1376.00,4193.60 1384.00,4193.60"/>
        <lane id=":-539.380.00_0_1" index="1" speed="13.89" length="8.27" shape="1376.00,4196.80 1384.00,4196.80"/>
        <lane id=":-539.380.00_0_2" index="2" speed="13.89" length="8.27" shape="1376.00,4196.80 1378.46,4197.30 1380.00,4198.40 1381.54,4199.50 1384.00,4200.00"/>
    </edge>
    <edge id=":-554.180.00_0" function="internal">
        <lane id=":-554.180.00_0_0" index="0" speed="13.89" length="8.27" shape="824.00,4206.40 816.00,4206.40"/>
        <lane id=":-554.180.00_0_1" index="1" speed="13.89" length="8.27" shape="824.00,4203.20 816.00,4203.20"/>
        <lane id=":-554.180.00_0_2" index="2" speed="13.89" length="8.27" shape="824.00,4203.20 821.54,4202.70 820.00,4201.60 818.46,4200.50 816.00,4200.00"/>
    </edge>
    <edge id=":-555.180.00_0" function="internal">
        <lane id=":-555.180.00_0_0" index="0" speed="13.89" length="8.27" shape="776.00,4193.60 784.00,4193.60"/>
        <lane id=":-555.180.00_0_1" index="1" speed="13.89" length="8.27" shape="776.00,4196.80 784.00,4196.80"/>
        <lane id=":-555.180.00_0_2" index="2" speed="13.89" length="8.27" shape="776.00,4196.80 778.46,4197.30 780.00,4198.40 781.54,4199.50 784.00,4200.00"/>
    </edge>
    <edge id=":-775.180.00_0" function="internal">
        <lane id=":-775.180.00_0_0" index="0" speed="13.89" length="8.27" shape="1006.40,4176.00 1006.40,4184.00"/>
        <lane id=":-775.180.00_0_1" index="1" speed="13.89" length="8.27" shape="1003.20,4176.00 1003.20,4184.00"/>
        <lane id=":-775.180.00_0_2" index="2" speed="13.89" length="8.27" shape="1003.20,4176.00 1002.70,4178.46 1001.60,4180.00 1000.50,4181.54 1000.00,4184.00"/>
    </edge>
    <edge id=":-89.580.00_0" function="internal">
        <lane id=":-89.580.00_0_0" index="0" speed="13.89" length="8.27" shape="2393.60,3824.00 2393.60,3816.00"/>
        <lane id=":-89.580.00_0_1" index="1" speed="13.89" length="8.27" shape="2396.80,3824.00 2396.80,3816.00"/>
        <lane id=":-89.580.00_0_2" index="2" speed="13.89" length="8.27" shape="2396.80,3824.00 2397.30,3821.54 2398.40,3820.00 2399.50,3818.46 2400.00,3816.00"/>
    </edge>
    <edge id=":10_0" function="internal">
        <lane id=":10_0_0" index="0" speed="3.65" length="4.67" shape="2400.00,3800.00 2400.80,3798.80 2401.60,3798.40 2402.40,3798.80 2403.20,3800.00"/>
    </edge>
    <edge id=":1065_0" function="internal">
        <lane id=":1065_0_0" index="0" speed="13.89" length="0.10" shape="600.00,4004.80 600.00,4004.80"/>
        <lane id=":1065_0_1" index="1" speed="13.89" length="0.10" shape="600.00,4001.60 600.00,4001.60"/>
    </edge>
    <edge id=":1065_2" function="internal">
        <lane id=":1065_2_0" index="0" speed="13.89" length="0.10" shape="600.00,3995.20 600.00,3995.20"/>
        <lane id=":1065_2_1" index="1" speed="13.89" length="0.10" shape="600.00,3998.40 600.00,3998.40"/>
    </edge>
    <edge id=":1166_0" function="internal">
        <lane id=":1166_0_0" index="0" speed="8.96" length="18.06" shape="395.20,4006.40 395.90,4001.50 398.00,3998.00 401.50,3995.90 406.40,3995.20"/>
        <lane id=":1166_0_1" index="1" speed="7.66" length="12.90" shape="398.40,4006.40 398.90,4002.90 400.40,4000.40 402.90,3998.90 406.40,3998.40"/>
    </edge>
    <edge id=":1166_2" function="internal">
        <lane id=":1166_2_0" index="0" speed="3.90" length="2.58" shape="406.40,4004.80 405.70,4004.90 405.20,4005.20 404.90,4005.70 404.80,4006.40"/>
        <lane id=":1166_2_1" index="1" speed="6.08" length="7.74" shape="406.40,4001.60 404.30,4001.90 402.80,4002.80 401.90,4004.30 401.60,4006.40"/>
    </edge>
    <edge id=":1224_0" function="internal">
        <lane id=":1224_0_0" index="0" speed="3.65" length="4.67" shape="401.60,4400.00 400.80,4401.20 400.00,4401.60 399.20,4401.20 398.40,4400.00"/>
    </edge>
    <edge id=":138_0" function="internal">
        <lane id=":138_0_0" index="0" speed="13.89" length="24.00" shape="2212.00,4406.40 2188.00,4406.40"/>
        <lane id=":138_0_1" index="1" speed="13.89" length="24.00" shape="2212.00,4403.20 2188.00,4403.20"/>
    </edge>
    <edge id=":138_2" function="internal">
        <lane id=":138_2_0" index="0" speed="9.84" length="6.30" shape="2212.00,4400.00 2205.74,4399.29"/>
    </edge>
    <edge id=":138_3" function="internal">
        <lane id=":138_3_0" index="0" speed="3.65" length="1.44" shape="2212.00,4400.00 2210.80,4399.20"/>
    </edge>
    <edge id=":138_12" function="internal">
        <lane id=":138_12_0" index="0" speed="9.84" length="15.70" shape="2205.74,4399.29 2205.35,4399.25 2200.60,4397.00 2197.75,4393.25 2196.80,4388.00"/>
    </edge>
    <edge id=":138_13" function="internal">
        <lane id=":138_13_0" index="0" speed="3.65" length="3.23" shape="2210.80,4399.20 2210.40,4398.40 2210.80,4397.60 2212.00,4396.80"/>
    </edge>
    <edge id=":138_4" function="internal">
        <lane id=":138_4_0" index="0" speed="6.51" length="9.03" shape="2206.40,4388.00 2206.75,4390.45 2207.80,4392.20 2209.55,4393.25 2212.00,4393.60"/>
        <lane id=":138_4_1" index="1" speed="8.00" length="14.19" shape="2203.20,4388.00 2203.75,4391.85 2205.40,4394.60 2208.15,4396.25 2212.00,4396.80"/>
    </edge>
    <edge id=":138_6" function="internal">
        <lane id=":138_6_0" index="0" speed="9.84" length="21.99" shape="2200.00,4388.00 2199.25,4394.65 2197.00,4399.40 2193.25,4402.25 2188.00,4403.20"/>
    </edge>
    <edge id=":138_7" function="internal">
        <lane id=":138_7_0" index="0" speed="3.65" length="4.67" shape="2200.00,4388.00 2199.20,4389.20 2198.40,4389.60 2197.60,4389.20 2196.80,4388.00"/>
    </edge>
    <edge id=":138_8" function="internal">
        <lane id=":138_8_0" index="0" speed="6.51" length="9.03" shape="2188.00,4393.60 2190.45,4393.25 2192.20,4392.20 2193.25,4390.45 2193.60,4388.00"/>
    </edge>
    <edge id=":138_9" function="internal">
        <lane id=":138_9_0" index="0" speed="13.89" length="24.00" shape="2188.00,4393.60 2212.00,4393.60"/>
        <lane id=":138_9_1" index="1" speed="13.89" length="24.00" shape="2188.00,4396.80 2212.00,4396.80"/>
    </edge>
    <edge id=":138_11" function="internal">
        <lane id=":138_11_0" index="0" speed="3.65" length="1.44" shape="2188.00,4400.00 2189.20,4400.80"/>
    </edge>
    <edge id=":138_14" function="internal">
        <lane id=":138_14_0" index="0" speed="3.65" length="3.23" shape="2189.20,4400.80 2189.60,4401.60 2189.20,4402.40 2188.00,4403.20"/>
    </edge>
    <edge id=":139.180.00_0" function="internal">
        <lane id=":139.180.00_0_0" index="0" speed="13.89" length="8.27" shape="2224.00,4406.40 2216.00,4406.40"/>
        <lane id=":139.180.00_0_1" index="1" speed="13.89" length="8.27" shape="2224.00,4403.20 2216.00,4403.20"/>
        <lane id=":139.180.00_0_2" index="2" speed="13.89" length="8.27" shape="2224.00,4403.20 2221.54,4402.70 2220.00,4401.60 2218.46,4400.50 2216.00,4400.00"/>
    </edge>
    <edge id=":257_0" function="internal">
        <lane id=":257_0_0" index="0" speed="13.89" length="24.00" shape="1412.00,4406.40 1388.00,4406.40"/>
        <lane id=":257_0_1" index="1" speed="13.89" length="24.00" shape="1412.00,4403.20 1388.00,4403.20"/>
    </edge>
    <edge id=":257_2" function="internal">
        <lane id=":257_2_0" index="0" speed="9.84" length="6.30" shape="1412.00,4400.00 1405.74,4399.29"/>
    </edge>
    <edge id=":257_3" function="internal">
        <lane id=":257_3_0" index="0" speed="3.65" length="1.44" shape="1412.00,4400.00 1410.80,4399.20"/>
    </edge>
    <edge id=":257_12" function="internal">
        <lane id=":257_12_0" index="0" speed="9.84" length="15.70" shape="1405.74,4399.29 1405.35,4399.25 1400.60,4397.00 1397.75,4393.25 1396.80,4388.00"/>
    </edge>
    <edge id=":257_13" function="internal">
        <lane id=":257_13_0" index="0" speed="3.65" length="3.23" shape="1410.80,4399.20 1410.40,4398.40 1410.80,4397.60 1412.00,4396.80"/>
    </edge>
    <edge id=":257_4" function="internal">
        <lane id=":257_4_0" index="0" speed="6.51" length="9.03" shape="1406.40,4388.00 1406.75,4390.45 1407.80,4392.20 1409.55,4393.25 1412.00,4393.60"/>
        <lane id=":257_4_1" index="1" speed="8.00" length="14.19" shape="1403.20,4388.00 1403.75,4391.85 1405.40,4394.60 1408.15,4396.25 1412.00,4396.80"/>
    </edge>
    <edge id=":257_6" function="internal">
        <lane id=":257_6_0" index="0" speed="9.84" length="21.99" shape="1400.00,4388.00 1399.25,4394.65 1397.00,4399.40 1393.25,4402.25 1388.00,4403.20"/>
    </edge>
    <edge id=":257_7" function="internal">
        <lane id=":257_7_0" index="0" speed="3.65" length="2.34" shape="1400.00,4388.00 1399.20,4389.20 1398.40,4389.60"/>
    </edge>
    <edge id=":257_14" function="internal">
        <lane id=":257_14_0" index="0" speed="3.65" length="2.34" shape="1398.40,4389.60 1397.60,4389.20 1396.80,4388.00"/>
    </edge>
    <edge id=":257_8" function="internal">
        <lane id=":257_8_0" index="0" speed="6.51" length="9.03" shape="1388.00,4393.60 1390.45,4393.25 1392.20,4392.20 1393.25,4390.45 1393.60,4388.00"/>
    </edge>
    <edge id=":257_9" function="internal">
        <lane id=":257_9_0" index="0" speed="13.89" length="24.00" shape="1388.00,4393.60 1412.00,4393.60"/>
        <lane id=":257_9_1" index="1" speed="13.89" length="24.00" shape="1388.00,4396.80 1412.00,4396.80"/>
    </edge>
    <edge id=":257_11" function="internal">
        <lane id=":257_11_0" index="0" speed="3.65" length="1.44" shape="1388.00,4400.00 1389.20,4400.80"/>
    </edge>
    <edge id=":257_15" function="internal">
        <lane id=":257_15_0" index="0" speed="3.65" length="3.23" shape="1389.20,4400.80 1389.60,4401.60 1389.20,4402.40 1388.00,4403.20"/>
    </edge>
    <edge id=":258.780.00_0" function="internal">
        <lane id=":258.780.00_0_0" index="0" speed="13.89" length="8.27" shape="1424.00,4406.40 1416.00,4406.40"/>
        <lane id=":258.780.00_0_1" index="1" speed="13.89" length="8.27" shape="1424.00,4403.20 1416.00,4403.20"/>
        <lane id=":258.780.00_0_2" index="2" speed="13.89" length="8.27" shape="1424.00,4403.20 1421.54,4402.70 1420.00,4401.60 1418.46,4400.50 1416.00,4400.00"/>
    </edge>
    <edge id=":259_0" function="internal">
        <lane id=":259_0_0" index="0" speed="3.90" length="2.58" shape="2193.60,4006.40 2193.50,4005.70 2193.20,4005.20 2192.70,4004.90 2192.00,4004.80"/>
        <lane id=":259_0_1" index="1" speed="6.08" length="7.74" shape="2196.80,4006.40 2196.50,4004.30 2195.60,4002.80 2194.10,4001.90 2192.00,4001.60"/>
    </edge>
    <edge id=":259_2" function="internal">
        <lane id=":259_2_0" index="0" speed="9.56" length="20.71" shape="2192.00,3995.20 2198.30,3995.90 2202.80,3998.00 2205.50,4001.50 2206.40,4006.40"/>
        <lane id=":259_2_1" index="1" speed="8.36" length="15.57" shape="2192.00,3998.40 2196.90,3998.90 2200.40,4000.40 2202.50,4002.90 2203.20,4006.40"/>
    </edge>
    <edge id=":295_0" function="internal">
        <lane id=":295_0_0" index="0" speed="6.51" length="9.03" shape="1393.60,4212.00 1393.25,4209.55 1392.20,4207.80 1390.45,4206.75 1388.00,4206.40"/>
    </edge>
    <edge id=":295_1" function="internal">
        <lane id=":295_1_0" index="0" speed="13.89" length="28.63" shape="1393.60,4212.00 1392.69,4207.00 1389.95,4201.33 1385.38,4195.02 1378.99,4188.04"/>
        <lane id=":295_1_1" index="1" speed="13.89" length="31.69" shape="1396.80,4212.00 1395.37,4202.57 1391.68,4195.92 1386.67,4190.75 1381.25,4185.78"/>
    </edge>
    <edge id=":295_3" function="internal">
        <lane id=":295_3_0" index="0" speed="9.84" length="2.84" shape="1400.00,4212.00 1400.32,4209.17"/>
    </edge>
    <edge id=":295_4" function="internal">
        <lane id=":295_4_0" index="0" speed="3.65" length="1.31" shape="1400.00,4212.00 1400.73,4210.91"/>
    </edge>
    <edge id=":295_20" function="internal">
        <lane id=":295_20_0" index="0" speed="9.84" length="19.15" shape="1400.32,4209.17 1400.75,4205.35 1403.00,4200.60 1406.75,4197.75 1412.00,4196.80"/>
    </edge>
    <edge id=":295_21" function="internal">
        <lane id=":295_21_0" index="0" speed="3.65" length="3.37" shape="1400.73,4210.91 1400.80,4210.80 1401.60,4210.40 1402.40,4210.80 1403.20,4212.00"/>
    </edge>
    <edge id=":295_5" function="internal">
        <lane id=":295_5_0" index="0" speed="6.51" length="9.03" shape="1412.00,4206.40 1409.55,4206.75 1407.80,4207.80 1406.75,4209.55 1406.40,4212.00"/>
    </edge>
    <edge id=":295_6" function="internal">
        <lane id=":295_6_0" index="0" speed="13.89" length="24.00" shape="1412.00,4206.40 1388.00,4206.40"/>
        <lane id=":295_6_1" index="1" speed="13.89" length="24.00" shape="1412.00,4203.20 1388.00,4203.20"/>
    </edge>
    <edge id=":295_8" function="internal">
        <lane id=":295_8_0" index="0" speed="13.89" length="6.48" shape="1412.00,4200.00 1405.56,4199.29"/>
    </edge>
    <edge id=":295_9" function="internal">
        <lane id=":295_9_0" index="0" speed="3.65" length="1.44" shape="1412.00,4200.00 1410.80,4199.20"/>
    </edge>
    <edge id=":295_22" function="internal">
        <lane id=":295_22_0" index="0" speed="13.89" length="28.27" shape="1405.56,4199.29 1403.88,4199.11 1396.05,4196.44 1388.51,4192.00 1381.25,4185.78"/>
    </edge>
    <edge id=":295_23" function="internal">
        <lane id=":295_23_0" index="0" speed="3.65" length="3.23" shape="1410.80,4199.20 1410.40,4198.40 1410.80,4197.60 1412.00,4196.80"/>
    </edge>
    <edge id=":295_10" function="internal">
        <lane id=":295_10_0" index="0" speed="13.89" length="25.34" shape="1390.70,4181.65 1396.26,4187.16 1400.84,4190.86 1405.67,4192.95 1412.00,4193.60"/>
        <lane id=":295_10_1" index="1" speed="13.89" length="27.78" shape="1388.44,4183.91 1394.72,4189.93 1400.03,4193.92 1405.43,4196.12 1412.00,4196.80"/>
    </edge>
    <edge id=":295_12" function="internal">
        <lane id=":295_12_0" index="0" speed="13.89" length="32.50" shape="1388.44,4183.91 1394.90,4191.20 1399.51,4198.31 1402.28,4205.25 1403.20,4212.00"/>
    </edge>
    <edge id=":295_13" function="internal">
        <lane id=":295_13_0" index="0" speed="7.96" length="3.81" shape="1386.17,4186.17 1388.57,4189.13"/>
    </edge>
    <edge id=":295_14" function="internal">
        <lane id=":295_14_0" index="0" speed="4.26" length="1.37" shape="1386.17,4186.17 1385.32,4187.25"/>
    </edge>
    <edge id=":295_24" function="internal">
        <lane id=":295_24_0" index="0" speed="7.96" length="18.65" shape="1388.57,4189.13 1390.64,4191.67 1393.18,4197.21 1392.67,4201.49 1388.00,4203.20"/>
    </edge>
    <edge id=":295_25" function="internal">
        <lane id=":295_25_0" index="0" speed="4.26" length="5.83" shape="1385.32,4187.25 1384.80,4187.92 1383.52,4188.43 1382.34,4187.72 1381.25,4185.78"/>
    </edge>
    <edge id=":295_15" function="internal">
        <lane id=":295_15_0" index="0" speed="5.72" length="10.80" shape="1388.00,4193.60 1386.14,4193.25 1384.02,4192.21 1381.64,4190.47 1378.99,4188.04"/>
    </edge>
    <edge id=":295_16" function="internal">
        <lane id=":295_16_0" index="0" speed="13.89" length="24.00" shape="1388.00,4193.60 1412.00,4193.60"/>
        <lane id=":295_16_1" index="1" speed="13.89" length="24.00" shape="1388.00,4196.80 1412.00,4196.80"/>
    </edge>
    <edge id=":295_18" function="internal">
        <lane id=":295_18_0" index="0" speed="9.84" length="6.30" shape="1388.00,4200.00 1394.26,4200.71"/>
    </edge>
    <edge id=":295_19" function="internal">
        <lane id=":295_19_0" index="0" speed="3.65" length="1.44" shape="1388.00,4200.00 1389.20,4200.80"/>
    </edge>
    <edge id=":295_26" function="internal">
        <lane id=":295_26_0" index="0" speed="9.84" length="15.70" shape="1394.26,4200.71 1394.65,4200.75 1399.40,4203.00 1402.25,4206.75 1403.20,4212.00"/>
    </edge>
    <edge id=":295_27" function="internal">
        <lane id=":295_27_0" index="0" speed="3.65" length="3.23" shape="1389.20,4200.80 1389.60,4201.60 1389.20,4202.40 1388.00,4203.20"/>
    </edge>
    <edge id=":296.180.00_0" function="internal">
        <lane id=":296.180.00_0_0" index="0" speed="13.89" length="8.27" shape="1393.60,4224.00 1393.60,4216.00"/>
        <lane id=":296.180.00_0_1" index="1" speed="13.89" length="8.27" shape="1396.80,4224.00 1396.80,4216.00"/>
        <lane id=":296.180.00_0_2" index="2" speed="13.89" length="8.27" shape="1396.80,4224.00 1397.30,4221.54 1398.40,4220.00 1399.50,4218.46 1400.00,4216.00"/>
    </edge>
    <edge id=":301_0" function="internal">
        <lane id=":301_0_0" index="0" speed="13.89" length="24.00" shape="812.00,4406.40 788.00,4406.40"/>
        <lane id=":301_0_1" index="1" speed="13.89" length="24.00" shape="812.00,4403.20 788.00,4403.20"/>
    </edge>
    <edge id=":301_2" function="internal">
        <lane id=":301_2_0" index="0" speed="9.84" length="6.30" shape="812.00,4400.00 805.74,4399.29"/>
    </edge>
    <edge id=":301_3" function="internal">
        <lane id=":301_3_0" index="0" speed="3.65" length="1.44" shape="812.00,4400.00 810.80,4399.20"/>
    </edge>
    <edge id=":301_12" function="internal">
        <lane id=":301_12_0" index="0" speed="9.84" length="15.70" shape="805.74,4399.29 805.35,4399.25 800.60,4397.00 797.75,4393.25 796.80,4388.00"/>
    </edge>
    <edge id=":301_13" function="internal">
        <lane id=":301_13_0" index="0" speed="3.65" length="3.23" shape="810.80,4399.20 810.40,4398.40 810.80,4397.60 812.00,4396.80"/>
    </edge>
    <edge id=":301_4" function="internal">
        <lane id=":301_4_0" index="0" speed="6.51" length="9.03" shape="806.40,4388.00 806.75,4390.45 807.80,4392.20 809.55,4393.25 812.00,4393.60"/>
        <lane id=":301_4_1" index="1" speed="8.00" length="14.19" shape="803.20,4388.00 803.75,4391.85 805.40,4394.60 808.15,4396.25 812.00,4396.80"/>
    </edge>
    <edge id=":301_6" function="internal">
        <lane id=":301_6_0" index="0" speed="9.84" length="21.99" shape="800.00,4388.00 799.25,4394.65 797.00,4399.40 793.25,4402.25 788.00,4403.20"/>
    </edge>
    <edge id=":301_7" function="internal">
        <lane id=":301_7_0" index="0" speed="3.65" length="2.34" shape="800.00,4388.00 799.20,4389.20 798.40,4389.60"/>
    </edge>
    <edge id=":301_14" function="internal">
        <lane id=":301_14_0" index="0" speed="3.65" length="2.34" shape="798.40,4389.60 797.60,4389.20 796.80,4388.00"/>
    </edge>
    <edge id=":301_8" function="internal">
        <lane id=":301_8_0" index="0" speed="6.51" length="9.03" shape="788.00,4393.60 790.45,4393.25 792.20,4392.20 793.25,4390.45 793.60,4388.00"/>
    </edge>
    <edge id=":301_9" function="internal">
        <lane id=":301_9_0" index="0" speed="13.89" length="24.00" shape="788.00,4393.60 812.00,4393.60"/>
        <lane id=":301_9_1" index="1" speed="13.89" length="24.00" shape="788.00,4396.80 812.00,4396.80"/>
    </edge>
    <edge id=":301_11" function="internal">
        <lane id=":301_11_0" index="0" speed="3.65" length="1.44" shape="788.00,4400.00 789.20,4400.80"/>
    </edge>
    <edge id=":301_15" function="internal">
        <lane id=":301_15_0" index="0" speed="3.65" length="3.23" shape="789.20,4400.80 789.60,4401.60 789.20,4402.40 788.00,4403.20"/>
    </edge>
    <edge id=":302.580.00_0" function="internal">
        <lane id=":302.580.00_0_0" index="0" speed="13.89" length="8.27" shape="824.00,4406.40 816.00,4406.40"/>
        <lane id=":302.580.00_0_1" index="1" speed="13.89" length="8.27" shape="824.00,4403.20 816.00,4403.20"/>
        <lane id=":302.580.00_0_2" index="2" speed="13.89" length="8.27" shape="824.00,4403.20 821.54,4402.70 820.00,4401.60 818.46,4400.50 816.00,4400.00"/>
    </edge>
    <edge id=":349_0" function="internal">
        <lane id=":349_0_0" index="0" speed="9.30" length="31.27" shape="1207.53,4016.58 1203.35,4009.31 1204.20,4002.40 1209.26,3997.23 1217.71,3995.20"/>
        <lane id=":349_0_1" index="1" speed="8.13" length="23.48" shape="1209.79,4014.32 1206.70,4008.88 1207.43,4003.74 1211.33,3999.90 1217.71,3998.40"/>
    </edge>
    <edge id=":349_2" function="internal">
        <lane id=":349_2_0" index="0" speed="4.12" length="4.78" shape="1217.71,4004.80 1216.19,4004.97 1215.50,4005.48 1215.63,4006.34 1216.58,4007.53"/>
        <lane id=":349_2_1" index="1" speed="6.49" length="14.35" shape="1217.71,4001.60 1213.15,4002.11 1211.07,4003.65 1211.46,4006.21 1214.32,4009.79"/>
    </edge>
    <edge id=":496_0" function="internal">
        <lane id=":496_0_0" index="0" speed="9.56" length="20.71" shape="606.40,4406.40 601.50,4405.50 598.00,4402.80 595.90,4398.30 595.20,4392.00"/>
        <lane id=":496_0_1" index="1" speed="8.36" length="15.57" shape="606.40,4403.20 602.90,4402.50 600.40,4400.40 598.90,4396.90 598.40,4392.00"/>
    </edge>
    <edge id=":496_2" function="internal">
        <lane id=":496_2_0" index="0" speed="3.90" length="2.58" shape="604.80,4392.00 604.90,4392.70 605.20,4393.20 605.70,4393.50 606.40,4393.60"/>
        <lane id=":496_2_1" index="1" speed="6.08" length="7.74" shape="601.60,4392.00 601.90,4394.10 602.80,4395.60 604.30,4396.50 606.40,4396.80"/>
    </edge>
    <edge id=":520_0" function="internal">
        <lane id=":520_0_0" index="0" speed="6.51" length="9.03" shape="793.60,4212.00 793.25,4209.55 792.20,4207.80 790.45,4206.75 788.00,4206.40"/>
        <lane id=":520_0_1" index="1" speed="8.00" length="14.19" shape="796.80,4212.00 796.25,4208.15 794.60,4205.40 791.85,4203.75 788.00,4203.20"/>
    </edge>
    <edge id=":520_2" function="internal">
        <lane id=":520_2_0" index="0" speed="9.84" length="21.99" shape="800.00,4212.00 800.75,4205.35 803.00,4200.60 806.75,4197.75 812.00,4196.80"/>
    </edge>
    <edge id=":520_3" function="internal">
        <lane id=":520_3_0" index="0" speed="3.65" length="2.34" shape="800.00,4212.00 800.80,4210.80 801.60,4210.40"/>
    </edge>
    <edge id=":520_12" function="internal">
        <lane id=":520_12_0" index="0" speed="3.65" length="2.34" shape="801.60,4210.40 802.40,4210.80 803.20,4212.00"/>
    </edge>
    <edge id=":520_4" function="internal">
        <lane id=":520_4_0" index="0" speed="6.51" length="9.03" shape="812.00,4206.40 809.55,4206.75 807.80,4207.80 806.75,4209.55 806.40,4212.00"/>
    </edge>
    <edge id=":520_5" function="internal">
        <lane id=":520_5_0" index="0" speed="13.89" length="24.00" shape="812.00,4206.40 788.00,4206.40"/>
        <lane id=":520_5_1" index="1" speed="13.89" length="24.00" shape="812.00,4203.20 788.00,4203.20"/>
    </edge>
    <edge id=":520_7" function="internal">
        <lane id=":520_7_0" index="0" speed="3.65" length="1.44" shape="812.00,4200.00 810.80,4199.20"/>
    </edge>
    <edge id=":520_13" function="internal">
        <lane id=":520_13_0" index="0" speed="3.65" length="3.23" shape="810.80,4199.20 810.40,4198.40 810.80,4197.60 812.00,4196.80"/>
    </edge>
    <edge id=":520_8" function="internal">
        <lane id=":520_8_0" index="0" speed="13.89" length="24.00" shape="788.00,4193.60 812.00,4193.60"/>
        <lane id=":520_8_1" index="1" speed="13.89" length="24.00" shape="788.00,4196.80 812.00,4196.80"/>
    </edge>
    <edge id=":520_10" function="internal">
        <lane id=":520_10_0" index="0" speed="9.84" length="6.30" shape="788.00,4200.00 794.26,4200.71"/>
    </edge>
    <edge id=":520_11" function="internal">
        <lane id=":520_11_0" index="0" speed="3.65" length="1.44" shape="788.00,4200.00 789.20,4200.80"/>
    </edge>
    <edge id=":520_14" function="internal">
        <lane id=":520_14_0" index="0" speed="9.84" length="15.70" shape="794.26,4200.71 794.65,4200.75 799.40,4203.00 802.25,4206.75 803.20,4212.00"/>
    </edge>
    <edge id=":520_15" function="internal">
        <lane id=":520_15_0" index="0" speed="3.65" length="3.23" shape="789.20,4200.80 789.60,4201.60 789.20,4202.40 788.00,4203.20"/>
    </edge>
    <edge id=":521.180.00_0" function="internal">
        <lane id=":521.180.00_0_0" index="0" speed="13.89" length="8.27" shape="793.60,4224.00 793.60,4216.00"/>
        <lane id=":521.180.00_0_1" index="1" speed="13.89" length="8.27" shape="796.80,4224.00 796.80,4216.00"/>
        <lane id=":521.180.00_0_2" index="2" speed="13.89" length="8.27" shape="796.80,4224.00 797.30,4221.54 798.40,4220.00 799.50,4218.46 800.00,4216.00"/>
    </edge>
    <edge id=":522.262.84_0" function="internal">
        <lane id=":522.262.84_0_0" index="0" speed="13.89" length="4.70" shape="1387.56,4178.51 1390.56,4181.50"/>
        <lane id=":522.262.84_0_1" index="1" speed="13.89" length="4.70" shape="1385.29,4180.77 1388.30,4183.77"/>
        <lane id=":522.262.84_0_2" index="2" speed="13.89" length="4.70" shape="1385.29,4180.77 1385.94,4182.12 1385.66,4183.40 1385.39,4184.68 1386.03,4186.03"/>
    </edge>
    <edge id=":536_0" function="internal">
        <lane id=":536_0_0" index="0" speed="4.72" length="9.35" shape="1600.00,4196.80 1602.40,4198.40 1603.20,4200.00 1602.40,4201.60 1600.00,4203.20"/>
    </edge>
    <edge id=":538_0" function="internal">
        <lane id=":538_0_0" index="0" speed="13.89" length="24.00" shape="1012.00,4206.40 988.00,4206.40"/>
        <lane id=":538_0_1" index="1" speed="13.89" length="24.00" shape="1012.00,4203.20 988.00,4203.20"/>
    </edge>