<?xml version="1.0" encoding="UTF-8"?>

<!-- generated on 2025-01-22 18:54:24.410033 by randomTrips.py v1_21_0+0000-d7b3b481c43
<configuration>
    <net-file value="C:/Users/pc/Documents/Trafic/data/sumo/networkss.net.xml"/>
    <output-trip-file value="C:/Users/pc/Documents/Trafic/data/sumo/networkss.trips.xml"/>
    <route-file value="C:/Users/pc/Documents/Trafic/data/sumo/networkss.rou.xml"/>
    <random value="True"/>
    <end value="20000.0"/>
    <period value="1.5"/>
</configuration>
-->

<!-- generated on 2025-01-22 18:54:24 by Eclipse SUMO duarouter Version 1.21.0
<duarouterConfiguration xmlns:xsi="http://www.w3.org/2001/XMLSchema-instance" xsi:noNamespaceSchemaLocation="http://sumo.dlr.de/xsd/duarouterConfiguration.xsd">

    <input>
        <net-file value="C:/Users/pc/Documents/Trafic/data/sumo/networkss.net.xml"/>
        <route-files value="C:/Users/pc/Documents/Trafic/data/sumo/networkss.trips.xml"/>
    </input>

    <output>
        <output-file value="C:/Users/pc/Documents/Trafic/data/sumo/networkss.rou.xml"/>
        <alternatives-output value="NUL"/>
    </output>

    <time>
        <begin value="0"/>
        <end value="20000.0"/>
    </time>

    <report>
        <no-warnings value="true"/>
        <ignore-errors value="true"/>
        <no-step-log value="true"/>
    </report>

</duarouterConfiguration>
-->

<routes xmlns:xsi="http://www.w3.org/2001/XMLSchema-instance" xsi:noNamespaceSchemaLocation="http://sumo.dlr.de/xsd/routes_file.xsd">
    <vehicle id="0" depart="0.00">
        <route edges="-260 -260.380.00 258 258.780.00 302 302.580.00 521"/>
    </vehicle>
    <vehicle id="1" depart="1.50">
        <route edges="775 1066 1167 1225 -1225 -1167 -1066 -775 -775.180.00 -539 -539.380.00 -522 -350"/>
    </vehicle>
    <vehicle id="2" depart="3.00">
        <route edges="1167 1225 -1225 -1167 -1066 -775 -775.180.00 -539 -539.380.00 -522 -350 -260 -260.380.00"/>
    </vehicle>
    <vehicle id="3" depart="4.50">
        <route edges="-521.180.00 497 553 -555 -555.180.00"/>
    </vehicle>
    <vehicle id="4" depart="6.00">
        <route edges="258.780.00 -258 -258.780.00 -139 -89 -89.580.00 89 139"/>
    </vehicle>
    <vehicle id="5" depart="7.50">
        <route edges="260 350 522 522.262.84 -522 -350 -260 -260.380.00"/>
    </vehicle>
    <vehicle id="6" depart="9.00">
        <route edges="554.180.00 -554 -554.180.00 -521 -521.180.00 521"/>
    </vehicle>
    <vehicle id="7" depart="10.50">
        <route edges="539 539.380.00 775 1066 1167 1225"/>
    </vehicle>
    <vehicle id="8" depart="12.00">
        <route edges="-521.180.00 521 521.180.00 555 -553"/>
    </vehicle>
    <vehicle id="9" depart="13.50">
        <route edges="775 1066 1167 1225 -1225 -1167 -1066 -775 -775.180.00 -554 -554.180.00 555"/>
    </vehicle>
    <vehicle id="10" depart="15.00">
        <route edges="-139 -89 -89.580.00 89 139 139.180.00 258 258.780.00 296 296.180.00 539 539.380.00 775 1066 1167 1225"/>
    </vehicle>
    <vehicle id="11" depart="16.50">
        <route edges="522.262.84 537"/>
    </vehicle>
    <vehicle id="12" depart="18.00">
        <route edges="-89 -89.580.00 89 139 139.180.00 258 258.780.00 296 296.180.00 539 539.380.00 -554 -554.180.00 -521"/>
    </vehicle>
    <vehicle id="13" depart="19.50">
        <route edges="522.262.84 -296 -296.180.00 296"/>
    </vehicle>
    <vehicle id="14" depart="21.00">
        <route edges="1167 1225"/>
    </vehicle>
    <vehicle id="15" depart="22.50">
        <route edges="-554 -554.180.00 -521 -521.180.00 -302"/>
    </vehicle>
    <vehicle id="16" depart="24.00">
        <route edges="-260"/>
    </vehicle>
    <vehicle id="17" depart="25.50">
        <route edges="-302.580.00 302 302.580.00 521"/>
    </vehicle>
    <vehicle id="18" depart="27.00">
        <route edges="-522 -350 -260 -260.380.00 258 258.780.00 296 296.180.00 539 539.380.00 775"/>
    </vehicle>
    <vehicle id="19" depart="28.50">
        <route edges="258.780.00 296 296.180.00 -522 -350 -260 -260.380.00"/>
    </vehicle>
    <vehicle id="20" depart="30.00">
        <route edges="-139 -89 -89.580.00 89 139 139.180.00 258 258.780.00 -258"/>
    </vehicle>
    <vehicle id="21" depart="31.50">
        <route edges="-775 -775.180.00 -539 -539.380.00 -296 -296.180.00 -258"/>
    </vehicle>
    <vehicle id="22" depart="33.00">
        <route edges="258.780.00 296 296.180.00 537"/>
    </vehicle>
    <vehicle id="23" depart="34.50">
        <route edges="555 -553 -497 -497.180.00 521 521.180.00 554 554.180.00 775 1066 1167 1225"/>
    </vehicle>
    <vehicle id="24" depart="36.00">
        <route edges="260 350 522 522.262.84 539 539.380.00 -554 -554.180.00 -521 -521.180.00 -302 -302.580.00"/>
    </vehicle>
    <vehicle id="25" depart="37.50">
        <route edges="555 -553 -497 -497.180.00 -302 -302.580.00 -258 -258.780.00 -139 -89"/>
    </vehicle>
    <vehicle id="26" depart="39.00">
        <route edges="-1066 -775 -775.180.00 -554 -554.180.00 555 -553 -497 -497.180.00"/>
    </vehicle>
    <vehicle id="27" depart="40.50">
        <route edges="1066 1167 1225 -1225 -1167 -1066 -775 -775.180.00 -554 -554.180.00 555 -553 -497"/>
    </vehicle>
    <vehicle id="28" depart="42.00">
        <route edges="-296.180.00 296 296.180.00 539 539.380.00 775 1066 1167 1225 -1225 -1167"/>
    </vehicle>
    <vehicle id="29" depart="43.50">
        <route edges="775 1066 1167 1225 -1225 -1167 -1066 -775 -775.180.00 -539 -539.380.00 -296 -296.180.00 -258 -258.780.00"/>
    </vehicle>
    <vehicle id="30" depart="45.00">
        <route edges="-537.180.00 -296 -296.180.00 -258 -258.780.00 -139 -89 -89.580.00"/>
    </vehicle>
    <vehicle id="31" depart="46.50">
        <route edges="554 554.180.00 -554 -554.180.00 -521 -521.180.00 -302"/>
    </vehicle>
    <vehicle id="32" depart="48.00">
        <route edges="-1066 -775 -775.180.00 -539 -539.380.00 -296 -296.180.00 -258 -258.780.00 -139 -89 -89.580.00 89 139"/>
    </vehicle>
    <vehicle id="33" depart="49.50">
        <route edges="260 350 522 522.262.84 -296 -296.180.00 302 302.580.00 497 553 -555"/>
    </vehicle>
    <vehicle id="34" depart="51.00">
        <route edges="-258.780.00 258 258.780.00 296 296.180.00 -522"/>
    </vehicle>
    <vehicle id="35" depart="52.50">
        <route edges="-296.180.00 296 296.180.00 539 539.380.00 -554 -554.180.00 -521 -521.180.00"/>
    </vehicle>
    <vehicle id="36" depart="54.00">
        <route edges="-89 -89.580.00 89 139 139.180.00 258 258.780.00 296 296.180.00 539 539.380.00 775 1066 1167 1225 -1225 -1167 -1066 -775"/>
    </vehicle>
    <vehicle id="37" depart="55.50">
        <route edges="-537 -537.180.00 539 539.380.00 -539 -539.380.00"/>
    </vehicle>
    <vehicle id="38" depart="57.00">
        <route edges="-775 -775.180.00 -539 -539.380.00 -296 -296.180.00 -258 -258.780.00 260 350 522"/>
    </vehicle>
    <vehicle id="39" depart="58.50">
        <route edges="-1066 -775 -775.180.00 -539 -539.380.00 -296 -296.180.00 296"/>
    </vehicle>
    <vehicle id="40" depart="60.00">
        <route edges="775 1066 1167 1225 -1225 -1167 -1066 -775 -775.180.00 -539 -539.380.00 -296 -296.180.00 -258 -258.780.00 260"/>
    </vehicle>
    <vehicle id="41" depart="61.50">
        <route edges="-554.180.00 554 554.180.00 -539 -539.380.00 539 539.380.00"/>
    </vehicle>
    <vehicle id="42" depart="63.00">
        <route edges="1167 1225 -1225 -1167 -1066 -775 -775.180.00 -539 -539.380.00 -296 -296.180.00 -258 -258.780.00 258"/>
    </vehicle>
    <vehicle id="43" depart="64.50">
        <route edges="-497.180.00 -302 -302.580.00 -258 -258.780.00 260 350 522 522.262.84"/>
    </vehicle>
    <vehicle id="44" depart="66.00">
        <route edges="-296.180.00 302 302.580.00 521 521.180.00"/>
    </vehicle>
    <vehicle id="45" depart="67.50">
        <route edges="-260 -260.380.00 258 258.780.00 296 296.180.00 539"/>
    </vehicle>
    <vehicle id="46" depart="69.00">
        <route edges="539 539.380.00 -539 -539.380.00 -296 -296.180.00"/>
    </vehicle>
    <vehicle id="47" depart="70.50">
        <route edges="302 302.580.00 -302 -302.580.00 -258 -258.780.00 -139 -89 -89.580.00"/>
    </vehicle>
    <vehicle id="48" depart="72.00">
        <route edges="-302.580.00 296 296.180.00 539 539.380.00 -539"/>
    </vehicle>
    <vehicle id="49" depart="73.50">
        <route edges="522.262.84 -296 -296.180.00 -258 -258.780.00 -139 -89 -89.580.00 89 139"/>
    </vehicle>
    <vehicle id="50" depart="75.00">
        <route edges="-302 -302.580.00"/>
    </vehicle>
    <vehicle id="51" depart="76.50">
        <route edges="497 553 -555 -555.180.00 -521 -521.180.00 -302"/>
    </vehicle>
    <vehicle id="52" depart="78.00">
        <route edges="-554.180.00 -521 -521.180.00 -302 -302.580.00 -258 -258.780.00 -139 -89 -89.580.00 89 139"/>
    </vehicle>
    <vehicle id="53" depart="79.50">
        <route edges="-522 -350 -260 -260.380.00 258 258.780.00 -258 -258.780.00"/>
    </vehicle>
    <vehicle id="54" depart="81.00">
        <route edges="539"/>
    </vehicle>
    <vehicle id="55" depart="82.50">
        <route edges="522.262.84 539 539.380.00 -554 -554.180.00 -521 -521.180.00 -302 -302.580.00"/>
    </vehicle>
    <vehicle id="56" depart="84.00">
        <route edges="139 139.180.00 258 258.780.00 296 296.180.00 -296"/>
    </vehicle>
    <vehicle id="57" depart="85.50">
        <route edges="-258 -258.780.00 -139 -89"/>
    </vehicle>
    <vehicle id="58" depart="87.00">
        <route edges="555 -553 -497 -497.180.00 521 521.180.00 554 554.180.00 -554 -554.180.00"/>
    </vehicle>
    <vehicle id="59" depart="88.50">
        <route edges="539.380.00 -539 -539.380.00 -296 -296.180.00 -258 -258.780.00 260 350 522"/>
    </vehicle>
    <vehicle id="60" depart="90.00">
        <route edges="-139 -89 -89.580.00 89 139 139.180.00 258 258.780.00 296 296.180.00 539 539.380.00 -554 -554.180.00 -521"/>
    </vehicle>
    <vehicle id="61" depart="91.50">
        <route edges="-555.180.00 554 554.180.00 775"/>
    </vehicle>
    <vehicle id="62" depart="93.00">
        <route edges="-302 -302.580.00 296 296.180.00 539 539.380.00 775 1066"/>
    </vehicle>
    <vehicle id="63" depart="94.50">
        <route edges="258 258.780.00 -258 -258.780.00 -139 -89 -89.580.00 89 139 139.180.00"/>
    </vehicle>
    <vehicle id="64" depart="96.00">
        <route edges="89 139 139.180.00 258 258.780.00 296 296.180.00 539 539.380.00 -554 -554.180.00 555 -553 -497"/>
    </vehicle>
    <vehicle id="65" depart="97.50">
        <route edges="-260.380.00 258 258.780.00 296 296.180.00 539 539.380.00 775 1066 1167 1225 -1225 -1167 -1066 -775 -775.180.00"/>
    </vehicle>
    <vehicle id="66" depart="99.00">
        <route edges="-296 -296.180.00 302 302.580.00 521 521.180.00 554 554.180.00"/>
    </vehicle>
    <vehicle id="67" depart="100.50">
        <route edges="-539 -539.380.00 -296 -296.180.00 302"/>
    </vehicle>
    <vehicle id="68" depart="102.00">
        <route edges="555 -553 -497 -497.180.00 -302 -302.580.00 -258 -258.780.00 -139 -89 -89.580.00 89 139"/>
    </vehicle>
    <vehicle id="69" depart="103.50">
        <route edges="-1225 -1167 -1066 -775 -775.180.00 -539 -539.380.00 -296 -296.180.00 -258 -258.780.00 -139"/>
    </vehicle>
    <vehicle id="70" depart="105.00">
        <route edges="-1225 -1167 -1066 -775 -775.180.00 -539 -539.380.00 537 -537 -537.180.00"/>
    </vehicle>
    <vehicle id="71" depart="106.50">
        <route edges="1167 1225 -1225 -1167 -1066 -775 -775.180.00 -554 -554.180.00 -521"/>
    </vehicle>
    <vehicle id="72" depart="108.00">
        <route edges="296.180.00 -296 -296.180.00"/>
    </vehicle>
    <vehicle id="73" depart="109.50">
        <route edges="296 296.180.00 539 539.380.00 -554 -554.180.00 555 -553"/>
    </vehicle>
    <vehicle id="74" depart="111.00">
        <route edges="-555 -555.180.00 555"/>
    </vehicle>
    <vehicle id="75" depart="112.50">
        <route edges="775 1066 1167 1225 -1225 -1167 -1066 -775 -775.180.00 -554 -554.180.00 555 -553 -497"/>
    </vehicle>
    <vehicle id="76" depart="114.00">
        <route edges="350 522 522.262.84 539 539.380.00 775 1066 1167 1225 -1225 -1167 -1066 -775"/>
    </vehicle>
    <vehicle id="77" depart="115.50">
        <route edges="-537.180.00"/>
    </vehicle>
    <vehicle id="78" depart="117.00">
        <route edges="-554 -554.180.00 554 554.180.00 -539 -539.380.00 -522 -350 -260 -260.380.00"/>
    </vehicle>
    <vehicle id="79" depart="118.50">
        <route edges="-497.180.00 521 521.180.00 554 554.180.00 -539"/>
    </vehicle>
    <vehicle id="80" depart="120.00">
        <route edges="260 350 522 522.262.84 -296 -296.180.00 302 302.580.00 497 553 -555 -555.180.00"/>
    </vehicle>
    <vehicle id="81" depart="121.50">
        <route edges="-537.180.00"/>
    </vehicle>
    <vehicle id="82" depart="123.00">
        <route edges="302.580.00 521"/>
    </vehicle>
    <vehicle id="83" depart="124.50">
        <route edges="-1167 -1066 -775 -775.180.00 775 1066 1167"/>
    </vehicle>
    <vehicle id="84" depart="126.00">
        <route edges="775 1066 1167 1225 -1225 -1167"/>
    </vehicle>
    <vehicle id="85" depart="127.50">
        <route edges="-302.580.00 296 296.180.00 537"/>
    </vehicle>
    <vehicle id="86" depart="129.00">
        <route edges="139.180.00 260"/>
    </vehicle>
    <vehicle id="87" depart="130.50">
        <route edges="555 -553 -497 -497.180.00 521 521.180.00 554 554.180.00 -539 -539.380.00 -296"/>
    </vehicle>
    <vehicle id="88" depart="132.00">
        <route edges="555 -553 -497 -497.180.00 497 553"/>
    </vehicle>
    <vehicle id="89" depart="133.50">
        <route edges="-1066 -775 -775.180.00 -539 -539.380.00 -296 -296.180.00 -258 -258.780.00"/>
    </vehicle>
    <vehicle id="90" depart="135.00">
        <route edges="539.380.00 775 1066 1167 1225 -1225 -1167 -1066 -775"/>
    </vehicle>
    <vehicle id="91" depart="136.50">
        <route edges="-1167 -1066 -775 -775.180.00 -539"/>
    </vehicle>
    <vehicle id="92" depart="138.00">
        <route edges="296.180.00 539 539.380.00 -554 -554.180.00 -521"/>
    </vehicle>
    <vehicle id="93" depart="139.50">
        <route edges="258.780.00 296 296.180.00 539 539.380.00 775 1066"/>
    </vehicle>
    <vehicle id="94" depart="141.00">
        <route edges="258 258.780.00 -258 -258.780.00 260 350"/>
    </vehicle>
    <vehicle id="95" depart="142.50">
        <route edges="296 296.180.00 537 -537 -537.180.00"/>
    </vehicle>
    <vehicle id="96" depart="144.00">
        <route edges="-539 -539.380.00 -296 -296.180.00 -258 -258.780.00 -139"/>
    </vehicle>
    <vehicle id="97" depart="145.50">
        <route edges="302.580.00 521 521.180.00 554 554.180.00 775 1066 1167 1225 -1225 -1167"/>
    </vehicle>
    <vehicle id="98" depart="147.00">
        <route edges="-1225 -1167 -1066 -775 -775.180.00 -539 -539.380.00 -296 -296.180.00 -258 -258.780.00 -139 -89 -89.580.00 89 139 139.180.00"/>
    </vehicle>
    <vehicle id="99" depart="148.50">
        <route edges="302 302.580.00 521 521.180.00 554 554.180.00 -554"/>
    </vehicle>
    <vehicle id="100" depart="150.00">
        <route edges="-521.180.00 -302 -302.580.00 -258 -258.780.00"/>
    </vehicle>
    <vehicle id="101" depart="151.50">
        <route edges="-554 -554.180.00 -521 -521.180.00 -302 -302.580.00 -258 -258.780.00 -139 -89 -89.580.00 89 139 139.180.00"/>
    </vehicle>
    <vehicle id="102" depart="153.00">
        <route edges="302.580.00 521 521.180.00 554 554.180.00 -539 -539.380.00 -296 -296.180.00"/>
    </vehicle>
    <vehicle id="103" depart="154.50">
        <route edges="775 1066 1167 1225 -1225 -1167 -1066 -775 -775.180.00 -554 -554.180.00 554 554.180.00"/>
    </vehicle>
    <vehicle id="104" depart="156.00">
        <route edges="-497.180.00 521 521.180.00 554 554.180.00 775"/>
    </vehicle>
    <vehicle id="105" depart="157.50">
        <route edges="-1167 -1066 -775 -775.180.00 -539 -539.380.00 -296 -296.180.00 296 296.180.00"/>
    </vehicle>
    <vehicle id="106" depart="159.00">
        <route edges="302 302.580.00 521 521.180.00 554 554.180.00 -539 -539.380.00 -522 -350 -260 -260.380.00"/>
    </vehicle>
    <vehicle id="107" depart="160.50">
        <route edges="-537.180.00"/>
    </vehicle>
    <vehicle id="108" depart="162.00">
        <route edges="-497 -497.180.00 521 521.180.00"/>
    </vehicle>
    <vehicle id="109" depart="163.50">
        <route edges="-522 -350 -260 -260.380.00 258 258.780.00 302 302.580.00 521 521.180.00 554 554.180.00"/>
    </vehicle>
    <vehicle id="110" depart="165.00">
        <route edges="-537 -537.180.00 539"/>
    </vehicle>
    <vehicle id="111" depart="166.50">
        <route edges="302.580.00 521 521.180.00 554 554.180.00 775 1066 1167 1225 -1225 -1167 -1066 -775"/>
    </vehicle>
    <vehicle id="112" depart="168.00">
        <route edges="-553 -497 -497.180.00 -302 -302.580.00"/>
    </vehicle>
    <vehicle id="113" depart="169.50">
        <route edges="-139 -89 -89.580.00 89 139 139.180.00"/>
    </vehicle>
    <vehicle id="114" depart="171.00">
        <route edges="89 139 139.180.00 258 258.780.00 302 302.580.00 521 521.180.00 554"/>
    </vehicle>
    <vehicle id="115" depart="172.50">
        <route edges="539.380.00 -539"/>
    </vehicle>
    <vehicle id="116" depart="174.00">
        <route edges="350 522 522.262.84 539 539.380.00 775 1066 1167"/>
    </vehicle>
    <vehicle id="117" depart="175.50">
        <route edges="-537.180.00 -296 -296.180.00 302 302.580.00 521 521.180.00"/>
    </vehicle>
    <vehicle id="118" depart="177.00">
        <route edges="497 553 -555 -555.180.00 -521 -521.180.00 -302 -302.580.00 296 296.180.00"/>
    </vehicle>
    <vehicle id="119" depart="178.50">
        <route edges="302.580.00 -302 -302.580.00 -258 -258.780.00 -139 -89 -89.580.00"/>
    </vehicle>
    <vehicle id="120" depart="180.00">
        <route edges="-139 -89 -89.580.00 89 139 139.180.00 258 258.780.00 296 296.180.00 539 539.380.00 775 1066 1167"/>
    </vehicle>
    <vehicle id="121" depart="181.50">
        <route edges="-296 -296.180.00 302 302.580.00 497 553 -555"/>
    </vehicle>
    <vehicle id="122" depart="183.00">
        <route edges="-1225 -1167 -1066 -775 -775.180.00 -554 -554.180.00 -521 -521.180.00 -302"/>
    </vehicle>
    <vehicle id="123" depart="184.50">
        <route edges="553 -555 -555.180.00 555 -553 -497"/>
    </vehicle>
    <vehicle id="124" depart="186.00">
        <route edges="258 258.780.00 296 296.180.00 539"/>
    </vehicle>
    <vehicle id="125" depart="187.50">
        <route edges="-539.380.00 -296 -296.180.00 -258 -258.780.00 -139 -89 -89.580.00 89 139"/>
    </vehicle>
    <vehicle id="126" depart="189.00">
        <route edges="-260.380.00 258 258.780.00 296 296.180.00 539 539.380.00 775 1066 1167"/>
    </vehicle>
    <vehicle id="127" depart="190.50">
        <route edges="-775.180.00 -554 -554.180.00 -521 -521.180.00 497 553 -555"/>
    </vehicle>
    <vehicle id="128" depart="192.00">
        <route edges="554.180.00 -554 -554.180.00 555 -553"/>
    </vehicle>
    <vehicle id="129" depart="193.50">
        <route edges="-302 -302.580.00 296 296.180.00 539 539.380.00 775 1066 1167 1225 -1225 -1167"/>
    </vehicle>
    <vehicle id="130" depart="195.00">
        <route edges="89 139 139.180.00 258 258.780.00 296 296.180.00"/>
    </vehicle>
    <vehicle id="131" depart="196.50">
        <route edges="553 -555 -555.180.00 554 554.180.00 -539 -539.380.00 537 -537 -537.180.00"/>
    </vehicle>
    <vehicle id="132" depart="198.00">
        <route edges="555 -553 -497 -497.180.00 521 521.180.00 554 554.180.00 -539 -539.380.00 -296 -296.180.00"/>
    </vehicle>
    <vehicle id="133" depart="199.50">
        <route edges="-537 -537.180.00 -296 -296.180.00 302 302.580.00 497"/>
    </vehicle>
    <vehicle id="134" depart="201.00">
        <route edges="-775 -775.180.00 -554 -554.180.00 555 -553 -497"/>
    </vehicle>
    <vehicle id="135" depart="202.50">
        <route edges="-537 -537.180.00 -296 -296.180.00 -258 -258.780.00 -139 -89 -89.580.00 89 139"/>
    </vehicle>
    <vehicle id="136" depart="204.00">
        <route edges="-350 -260 -260.380.00 258 258.780.00 296 296.180.00 539"/>
    </vehicle>
    <vehicle id="137" depart="205.50">
        <route edges="539 539.380.00 -539 -539.380.00 -296 -296.180.00 -258 -258.780.00 260"/>
    </vehicle>
    <vehicle id="138" depart="207.00">
        <route edges="-302 -302.580.00 296 296.180.00 -522 -350 -260"/>
    </vehicle>
    <vehicle id="139" depart="208.50">
        <route edges="553 -555 -555.180.00 554 554.180.00 775"/>
    </vehicle>
    <vehicle id="140" depart="210.00">
        <route edges="-537 -537.180.00 539 539.380.00 775"/>
    </vehicle>
    <vehicle id="141" depart="211.50">
        <route edges="-537.180.00 -296 -296.180.00 -258"/>
    </vehicle>
    <vehicle id="142" depart="213.00">
        <route edges="302 302.580.00 521 521.180.00 555 -553 -497 -497.180.00"/>
    </vehicle>
    <vehicle id="143" depart="214.50">
        <route edges="522 522.262.84 539 539.380.00 775 1066 1167 1225 -1225 -1167 -1066 -775 -775.180.00"/>
    </vehicle>
    <vehicle id="144" depart="216.00">
        <route edges="-260 -260.380.00 258 258.780.00 296 296.180.00"/>
    </vehicle>
    <vehicle id="145" depart="217.50">
        <route edges="539 539.380.00 775 1066 1167 1225 -1225 -1167"/>
    </vehicle>
    <vehicle id="146" depart="219.00">
        <route edges="539.380.00 -539 -539.380.00 -296 -296.180.00 -258 -258.780.00 -139 -89"/>
    </vehicle>
    <vehicle id="147" depart="220.50">
        <route edges="539 539.380.00 -539 -539.380.00 -522 -350"/>
    </vehicle>
    <vehicle id="148" depart="222.00">
        <route edges="-302.580.00 296 296.180.00 -522 -350"/>
    </vehicle>
    <vehicle id="149" depart="223.50">
        <route edges="-302.580.00 296 296.180.00 539 539.380.00 -554 -554.180.00 555 -553 -497 -497.180.00"/>
    </vehicle>
    <vehicle id="150" depart="225.00">
        <route edges="-302 -302.580.00 296 296.180.00 539 539.380.00 -539 -539.380.00"/>
    </vehicle>
    <vehicle id="151" depart="226.50">
        <route edges="-302 -302.580.00 -258 -258.780.00 258"/>
    </vehicle>
    <vehicle id="152" depart="228.00">
        <route edges="302.580.00 497 553"/>
    </vehicle>
    <vehicle id="153" depart="229.50">
        <route edges="-521 -521.180.00 -302 -302.580.00 296 296.180.00 -522 -350 -260"/>
    </vehicle>
    <vehicle id="154" depart="231.00">
        <route edges="-260.380.00 258 258.780.00 -258"/>
    </vehicle>
    <vehicle id="155" depart="232.50">
        <route edges="522 522.262.84 -522"/>
    </vehicle>
    <vehicle id="156" depart="234.00">
        <route edges="-1167 -1066 -775 -775.180.00 -554 -554.180.00 -521 -521.180.00 497 553"/>
    </vehicle>
    <vehicle id="157" depart="235.50">
        <route edges="89 139 139.180.00 258 258.780.00 302 302.580.00 -302 -302.580.00"/>
    </vehicle>
    <vehicle id="158" depart="237.00">
        <route edges="497 553 -555 -555.180.00 555"/>
    </vehicle>
    <vehicle id="159" depart="238.50">
        <route edges="-1167 -1066 -775 -775.180.00 -539 -539.380.00 -296"/>
    </vehicle>
    <vehicle id="160" depart="240.00">
        <route edges="-521.180.00 -302 -302.580.00 -258 -258.780.00 -139 -89"/>
    </vehicle>
    <vehicle id="161" depart="241.50">
        <route edges="-775 -775.180.00 775 1066 1167 1225"/>
    </vehicle>
    <vehicle id="162" depart="243.00">
        <route edges="521.180.00 555 -553"/>
    </vehicle>
    <vehicle id="163" depart="244.50">
        <route edges="-554.180.00 -521 -521.180.00 521 521.180.00"/>
    </vehicle>
    <vehicle id="164" depart="246.00">
        <route edges="260"/>
    </vehicle>
    <vehicle id="165" depart="247.50">
        <route edges="-555.180.00 -521 -521.180.00 -302 -302.580.00 -258 -258.780.00 258 258.780.00"/>
    </vehicle>
    <vehicle id="166" depart="249.00">
        <route edges="-554.180.00 555"/>
    </vehicle>
    <vehicle id="167" depart="250.50">
        <route edges="-89 -89.580.00 89 139 139.180.00 258 258.780.00 296 296.180.00 -522"/>
    </vehicle>
    <vehicle id="168" depart="252.00">
        <route edges="-537 -537.180.00 -296 -296.180.00 -258 -258.780.00 -139 -89 -89.580.00 89 139"/>
    </vehicle>
    <vehicle id="169" depart="253.50">
        <route edges="-497 -497.180.00 -302 -302.580.00 -258 -258.780.00 260 350 522 522.262.84"/>
    </vehicle>
    <vehicle id="170" depart="255.00">
        <route edges="-1066 -775 -775.180.00 -539 -539.380.00 -522 -350 -260"/>
    </vehicle>
    <vehicle id="171" depart="256.50">
        <route edges="775 1066 1167 1225 -1225 -1167 -1066 -775 -775.180.00 -554 -554.180.00 555 -553 -497 -497.180.00"/>
    </vehicle>
    <vehicle id="172" depart="258.00">
        <route edges="-302 -302.580.00 296 296.180.00 539 539.380.00 -554 -554.180.00 -521"/>
    </vehicle>
    <vehicle id="173" depart="259.50">
        <route edges="-1066 -775 -775.180.00 -539 -539.380.00 -296 -296.180.00 302"/>
    </vehicle>
    <vehicle id="174" depart="261.00">
        <route edges="497 553 -555 -555.180.00 554 554.180.00 -539 -539.380.00 -522 -350 -260"/>
    </vehicle>
    <vehicle id="175" depart="262.50">
        <route edges="-350 -260 -260.380.00 258 258.780.00 296 296.180.00 539 539.380.00 -554 -554.180.00 -521"/>
    </vehicle>
    <vehicle id="176" depart="264.00">
        <route edges="553 -555 -555.180.00 -521 -521.180.00 521 521.180.00"/>
    </vehicle>
    <vehicle id="177" depart="265.50">
        <route edges="554.180.00 -539 -539.380.00 -296 -296.180.00 -258 -258.780.00 260"/>
    </vehicle>
    <vehicle id="178" depart="267.00">
        <route edges="-139 -89 -89.580.00 89 139 139.180.00 258 258.780.00 296 296.180.00 539 539.380.00 775 1066 1167 1225"/>
    </vehicle>
    <vehicle id="179" depart="268.50">
        <route edges="-555 -555.180.00 555 -553 -497"/>
    </vehicle>
    <vehicle id="180" depart="270.00">
        <route edges="139 139.180.00 258 258.780.00 302 302.580.00 497 553 -555"/>
    </vehicle>
    <vehicle id="181" depart="271.50">
        <route edges="521.180.00 -521 -521.180.00 -302 -302.580.00 296"/>
    </vehicle>
    <vehicle id="182" depart="273.00">
        <route edges="555 -553 -497 -497.180.00 521 521.180.00 554 554.180.00 775 1066 1167"/>
    </vehicle>
    <vehicle id="183" depart="274.50">
        <route edges="89 139 139.180.00 260 350 522 522.262.84"/>
    </vehicle>
    <vehicle id="184" depart="276.00">
        <route edges="1066 1167 1225 -1225 -1167 -1066 -775 -775.180.00 -554 -554.180.00 -521 -521.180.00 497 553 -555 -555.180.00"/>
    </vehicle>
    <vehicle id="185" depart="277.50">
        <route edges="1066 1167 1225 -1225 -1167 -1066 -775 -775.180.00 -539 -539.380.00 -522"/>
    </vehicle>
    <vehicle id="186" depart="279.00">
        <route edges="-89 -89.580.00 89 139 139.180.00 258 258.780.00 296 296.180.00 539"/>
    </vehicle>
    <vehicle id="187" depart="280.50">
        <route edges="539.380.00 -539 -539.380.00 -522 -350"/>
    </vehicle>
    <vehicle id="188" depart="282.00">
        <route edges="1167 1225 -1225 -1167 -1066 -775 -775.180.00 -539 -539.380.00 -296 -296.180.00 -258"/>
    </vehicle>
    <vehicle id="189" depart="283.50">
        <route edges="-555.180.00 554 554.180.00 775 1066 1167 1225 -1225 -1167 -1066 -775 -775.180.00"/>
    </vehicle>
    <vehicle id="190" depart="285.00">
        <route edges="260 350 522 522.262.84 539 539.380.00 -554 -554.180.00 -521 -521.180.00 -302"/>
    </vehicle>
    <vehicle id="191" depart="286.50">
        <route edges="497 553 -555 -555.180.00 554 554.180.00 775 1066"/>
    </vehicle>
    <vehicle id="192" depart="288.00">
        <route edges="-521.180.00 -302 -302.580.00 -258 -258.780.00 -139 -89 -89.580.00"/>
    </vehicle>
    <vehicle id="193" depart="289.50">
        <route edges="-302.580.00 -258 -258.780.00 -139"/>
    </vehicle>
    <vehicle id="194" depart="291.00">
        <route edges="1066 1167 1225 -1225 -1167 -1066 -775 -775.180.00 -539 -539.380.00 -296 -296.180.00"/>
    </vehicle>
    <vehicle id="195" depart="292.50">
        <route edges="350 522 522.262.84 537 -537 -537.180.00"/>
    </vehicle>
    <vehicle id="196" depart="294.00">
        <route edges="-521 -521.180.00 -302 -302.580.00 -258 -258.780.00 -139 -89 -89.580.00 89 139 139.180.00"/>
    </vehicle>
    <vehicle id="197" depart="295.50">
        <route edges="296.180.00 -296 -296.180.00 -258 -258.780.00 260 350"/>
    </vehicle>
    <vehicle id="198" depart="297.00">
        <route edges="-539.380.00 -522 -350"/>
    </vehicle>
    <vehicle id="199" depart="298.50">
        <route edges="-497 -497.180.00"/>
    </vehicle>
    <vehicle id="200" depart="300.00">
        <route edges="-258.780.00 258 258.780.00 296 296.180.00 539 539.380.00 -554 -554.180.00 555 -553"/>
    </vehicle>
    <vehicle id="201" depart="301.50">
        <route edges="296.180.00 -296 -296.180.00 302"/>
    </vehicle>
    <vehicle id="202" depart="303.00">
        <route edges="-302 -302.580.00 296 296.180.00 539 539.380.00 775 1066 1167 1225 -1225 -1167 -1066 -775"/>
    </vehicle>
    <vehicle id="203" depart="304.50">
        <route edges="-497.180.00 521 521.180.00 554 554.180.00 775 1066 1167 1225 -1225 -1167"/>
    </vehicle>
    <vehicle id="204" depart="306.00">
        <route edges="522.262.84 -296 -296.180.00 -258 -258.780.00 -139 -89"/>
    </vehicle>
    <vehicle id="205" depart="307.50">
        <route edges="522.262.84 539 539.380.00 -554 -554.180.00 555"/>
    </vehicle>
    <vehicle id="206" depart="309.00">
        <route edges="302.580.00 521 521.180.00 554 554.180.00 775 1066 1167 1225 -1225 -1167"/>
    </vehicle>
    <vehicle id="207" depart="310.50">
        <route edges="555 -553 -497 -497.180.00 521 521.180.00"/>
    </vehicle>
    <vehicle id="208" depart="312.00">
        <route edges="553 -555 -555.180.00 554 554.180.00 -554 -554.180.00"/>
    </vehicle>