<?xml version="1.0" encoding="UTF-8"?>

<!-- generated on 2025-01-26 11:39:33.951719 by osmWebWizard.py v1_21_0+0000-d7b3b481c43
<configuration>
    <net-file value="C:\Users\pc\Sumo\2025-01-26-11-39-29\osm.net.xml.gz"/>
    <output-trip-file value="C:\Users\pc\Sumo\2025-01-26-11-39-29\osm.passenger.trips.xml"/>
    <route-file value="C:\Users\pc\Sumo\2025-01-26-11-39-29\osm.passenger.rou.xml"/>
    <prefix value="veh"/>
    <trip-attributes value="departLane=&quot;best&quot;"/>
    <fringe-start-attributes value="departSpeed=&quot;max&quot;"/>
    <vehicle-class value="passenger"/>
    <lanes value="True"/>
    <fringe-factor value="150"/>
    <allow-fringe.min-length value="1000.0"/>
    <via-edge-types value="highway.motorway,highway.motorway_link,highway.trunk_link,highway.primary_link,highway.secondary_link,highway.tertiary_link"/>
    <min-distance value="300.0"/>
    <min-distance.fringe value="10.0"/>
    <remove-loops value="True"/>
    <validate value="True"/>
    <end value="10000.0"/>
    <insertion-density value="50.0"/>
</configuration>
-->

<!-- generated on 2025-01-26 11:39:33 by Eclipse SUMO duarouter Version 1.21.0
<duarouterConfiguration xmlns:xsi="http://www.w3.org/2001/XMLSchema-instance" xsi:noNamespaceSchemaLocation="http://sumo.dlr.de/xsd/duarouterConfiguration.xsd">

    <input>
        <net-file value="C:\Users\pc\Sumo\2025-01-26-11-39-29\osm.net.xml.gz"/>
        <route-files value="C:\Users\pc\Sumo\2025-01-26-11-39-29\osm.passenger.trips.xml"/>
    </input>

    <output>
        <output-file value="C:\Users\pc\Sumo\2025-01-26-11-39-29\osm.passenger.trips.xml.tmp"/>
        <alternatives-output value="NUL"/>
        <write-trips value="true"/>
    </output>

    <processing>
        <remove-loops value="true"/>
    </processing>

    <time>
        <begin value="0.0"/>
        <end value="10000.0"/>
    </time>

    <report>
        <no-warnings value="true"/>
        <ignore-errors value="true"/>
        <no-step-log value="true"/>
    </report>

</duarouterConfiguration>
-->

<routes xmlns:xsi="http://www.w3.org/2001/XMLSchema-instance" xsi:noNamespaceSchemaLocation="http://sumo.dlr.de/xsd/routes_file.xsd">
    <vType id="veh_passenger" vClass="passenger"/>
    <trip id="veh0" type="veh_passenger" depart="0.00" departLane="best" departSpeed="max" from="1330180555#0" to="-2331704"/>
    <trip id="veh3" type="veh_passenger" depart="29.12" departLane="best" departSpeed="max" from="-80698388#3" to="-2331704"/>
    <trip id="veh6" type="veh_passenger" depart="58.23" departLane="best" departSpeed="max" from="1330180555#0" to="1174525661"/>
    <trip id="veh9" type="veh_passenger" depart="87.35" departLane="best" departSpeed="max" from="-4976151#4" to="-2331704"/>
    <trip id="veh10" type="veh_passenger" depart="97.06" departLane="best" departSpeed="max" from="38089870" to="1174525661"/>
    <trip id="veh12" type="veh_passenger" depart="116.47" departLane="best" departSpeed="max" from="1174714318" to="80698388#3"/>
    <trip id="veh13" type="veh_passenger" depart="126.17" departLane="best" departSpeed="max" from="38089870" to="1174525661"/>
    <trip id="veh14" type="veh_passenger" depart="135.88" departLane="best" departSpeed="max" from="38089870" to="1174525661"/>
    <trip id="veh15" type="veh_passenger" depart="145.59" departLane="best" departSpeed="max" from="29505715" to="-2331704"/>
    <trip id="veh20" type="veh_passenger" depart="194.12" departLane="best" departSpeed="max" from="1330180555#0" to="1174525661"/>
    <trip id="veh27" type="veh_passenger" depart="262.06" departLane="best" departSpeed="max" from="1174714318" to="51972127#1"/>
    <trip id="veh29" type="veh_passenger" depart="281.47" departLane="best" departSpeed="max" from="38089870" to="1070010814#1"/>
    <trip id="veh33" type="veh_passenger" depart="320.29" departLane="best" departSpeed="max" from="1174714318" to="4981404#0"/>
    <trip id="veh35" type="veh_passenger" depart="339.70" departLane="best" departSpeed="max" from="38089869#0" to="1174525661"/>
    <trip id="veh36" type="veh_passenger" depart="349.41" departLane="best" departSpeed="max" from="38089869#0" to="1174525661"/>
    <trip id="veh38" type="veh_passenger" depart="368.82" departLane="best" departSpeed="max" from="-445119454#1" to="-2331704"/>
    <trip id="veh39" type="veh_passenger" depart="378.52" departLane="best" departSpeed="max" from="1174714318" to="1174525661"/>
    <trip id="veh40" type="veh_passenger" depart="388.23" departLane="best" departSpeed="max" from="-80698388#3" to="1174525661"/>
    <trip id="veh42" type="veh_passenger" depart="407.64" departLane="best" departSpeed="max" from="-4976151#4" to="1174525661"/>
    <trip id="veh45" type="veh_passenger" depart="436.76" departLane="best" departSpeed="max" from="38089870" to="-2331704"/>
    <trip id="veh50" type="veh_passenger" depart="485.29" departLane="best" departSpeed="max" from="9930081" to="-2331704"/>
    <trip id="veh55" type="veh_passenger" depart="533.82" departLane="best" departSpeed="max" from="9930081" to="80698388#3"/>
    <trip id="veh56" type="veh_passenger" depart="543.52" departLane="best" departSpeed="max" from="38089870" to="311837943#1"/>
    <trip id="veh57" type="veh_passenger" depart="553.23" departLane="best" departSpeed="max" from="-51972127#1" to="-2331704"/>
    <trip id="veh59" type="veh_passenger" depart="572.64" departLane="best" departSpeed="max" from="9930081" to="80698388#3"/>
    <trip id="veh61" type="veh_passenger" depart="592.05" departLane="best" departSpeed="max" from="1174714318" to="51972127#1"/>
    <trip id="veh62" type="veh_passenger" depart="601.76" departLane="best" departSpeed="max" from="-1174525661" to="80698388#3"/>
    <trip id="veh65" type="veh_passenger" depart="630.87" departLane="best" departSpeed="max" from="1174714318" to="1174525661"/>
    <trip id="veh66" type="veh_passenger" depart="640.58" departLane="best" departSpeed="max" from="1174714318" to="80698388#3"/>
    <trip id="veh69" type="veh_passenger" depart="669.70" departLane="best" departSpeed="max" from="-4976151#4" to="4973846#6"/>
    <trip id="veh70" type="veh_passenger" depart="679.40" departLane="best" departSpeed="max" from="9930081" to="80698388#3"/>
    <trip id="veh72" type="veh_passenger" depart="698.81" departLane="best" departSpeed="max" from="-51972127#1" to="-2331704"/>
    <trip id="veh74" type="veh_passenger" depart="718.23" departLane="best" departSpeed="max" from="1174714318" to="80698388#3"/>
    <trip id="veh76" type="veh_passenger" depart="737.64" departLane="best" departSpeed="max" from="-1174525661" to="-2331704"/>
    <trip id="veh78" type="veh_passenger" depart="757.05" departLane="best" departSpeed="max" from="1174714318" to="51972127#1"/>
    <trip id="veh79" type="veh_passenger" depart="766.75" departLane="best" departSpeed="max" from="38089870" to="-2331704"/>
    <trip id="veh82" type="veh_passenger" depart="795.87" departLane="best" departSpeed="max" from="38089869#0" to="1174525661"/>
    <trip id="veh85" type="veh_passenger" depart="824.99" departLane="best" departSpeed="max" from="38089870" to="1174525661"/>
    <trip id="veh86" type="veh_passenger" depart="834.69" departLane="best" departSpeed="max" from="-1174525661" to="-2331704"/>
    <trip id="veh87" type="veh_passenger" depart="844.40" departLane="best" departSpeed="max" from="-1174525661" to="80698388#3"/>
    <trip id="veh89" type="veh_passenger" depart="863.81" departLane="best" departSpeed="max" from="38089870" to="-2331704"/>
    <trip id="veh96" type="veh_passenger" depart="931.75" departLane="best" departSpeed="max" from="1174714318" to="1174525661"/>
    <trip id="veh98" type="veh_passenger" depart="951.16" departLane="best" departSpeed="max" from="-4976151#4" to="-2331704"/>
    <trip id="veh102" type="veh_passenger" depart="989.99" departLane="best" departSpeed="max" from="-80698388#3" to="1174525661"/>
    <trip id="veh105" type="veh_passenger" depart="1019.10" departLane="best" departSpeed="max" from="-1174525661" to="-2331704"/>
    <trip id="veh107" type="veh_passenger" depart="1038.52" departLane="best" departSpeed="max" from="38089870" to="-2331704"/>
    <trip id="veh110" type="veh_passenger" depart="1067.63" departLane="best" departSpeed="max" from="-1174525661" to="80698388#3"/>
    <trip id="veh112" type="veh_passenger" depart="1087.04" departLane="best" departSpeed="max" from="1174714318" to="80698388#3"/>
    <trip id="veh113" type="veh_passenger" depart="1096.75" departLane="best" from="4982588#2" to="1174525661"/>
    <trip id="veh114" type="veh_passenger" depart="1106.46" departLane="best" departSpeed="max" from="38089870" to="1174525661"/>
    <trip id="veh117" type="veh_passenger" depart="1135.57" departLane="best" departSpeed="max" from="38089869#0" to="1174525661"/>
    <trip id="veh119" type="veh_passenger" depart="1154.98" departLane="best" departSpeed="max" from="29505715" to="-2331704"/>
    <trip id="veh121" type="veh_passenger" depart="1174.40" departLane="best" departSpeed="max" from="1174714318" to="1174525661"/>
    <trip id="veh122" type="veh_passenger" depart="1184.10" departLane="best" departSpeed="max" from="-80698388#3" to="-2331704"/>
    <trip id="veh124" type="veh_passenger" depart="1203.51" departLane="best" departSpeed="max" from="-80698388#3" to="-2331704"/>
    <trip id="veh132" type="veh_passenger" depart="1281.16" departLane="best" departSpeed="max" from="29505715" to="4976151#4"/>
    <trip id="veh133" type="veh_passenger" depart="1290.87" departLane="best" departSpeed="max" from="-1174525661" to="-2331704"/>
    <trip id="veh136" type="veh_passenger" depart="1319.98" departLane="best" departSpeed="max" from="29505715" to="-2331704"/>
    <trip id="veh137" type="veh_passenger" depart="1329.69" departLane="best" departSpeed="max" from="38089870" to="1174525661"/>
    <trip id="veh138" type="veh_passenger" depart="1339.39" departLane="best" departSpeed="max" from="-1174525661" to="80698388#3"/>
    <trip id="veh140" type="veh_passenger" depart="1358.81" departLane="best" departSpeed="max" from="-1174525661" to="80698388#3"/>
    <trip id="veh143" type="veh_passenger" depart="1387.92" departLane="best" departSpeed="max" from="38089870" to="-2331704"/>
    <trip id="veh145" type="veh_passenger" depart="1407.33" departLane="best" departSpeed="max" from="-80698388#3" to="1174525661"/>
    <trip id="veh146" type="veh_passenger" depart="1417.04" departLane="best" departSpeed="max" from="-51972127#1" to="-2331704"/>
    <trip id="veh151" type="veh_passenger" depart="1465.57" departLane="best" departSpeed="max" from="1174714318" to="4976151#4"/>
    <trip id="veh152" type="veh_passenger" depart="1475.27" departLane="best" departSpeed="max" from="1174714318" to="4976151#4"/>
    <trip id="veh157" type="veh_passenger" depart="1523.80" departLane="best" departSpeed="max" from="-1174525661" to="-2331704"/>
    <trip id="veh158" type="veh_passenger" depart="1533.51" departLane="best" departSpeed="max" from="1174714318" to="4976151#4"/>
    <trip id="veh160" type="veh_passenger" depart="1552.92" departLane="best" departSpeed="max" from="-445119454#1" to="-2331704"/>
    <trip id="veh162" type="veh_passenger" depart="1572.33" departLane="best" departSpeed="max" from="-1174525661" to="-2331704"/>
    <trip id="veh164" type="veh_passenger" depart="1591.74" departLane="best" departSpeed="max" from="29505715" to="-2331704"/>
    <trip id="veh166" type="veh_passenger" depart="1611.16" departLane="best" departSpeed="max" from="38089870" to="1174525661"/>
    <trip id="veh168" type="veh_passenger" depart="1630.57" departLane="best" departSpeed="max" from="-1174525661" to="-2331704"/>
    <trip id="veh173" type="veh_passenger" depart="1679.10" departLane="best" departSpeed="max" from="9930081" to="-2331704"/>
    <trip id="veh174" type="veh_passenger" depart="1688.80" departLane="best" departSpeed="max" from="38089869#0" to="1174525661"/>
    <trip id="veh176" type="veh_passenger" depart="1708.21" departLane="best" departSpeed="max" from="1174714318" to="1174525661"/>
    <trip id="veh177" type="veh_passenger" depart="1717.92" departLane="best" departSpeed="max" from="1330180555#0" to="-2331704"/>
    <trip id="veh178" type="veh_passenger" depart="1727.62" departLane="best" departSpeed="max" from="-1174525661" to="-2331704"/>
    <trip id="veh181" type="veh_passenger" depart="1756.74" departLane="best" departSpeed="max" from="29505715" to="80698388#3"/>
    <trip id="veh182" type="veh_passenger" depart="1766.45" departLane="best" departSpeed="max" from="38089870" to="1174525661"/>
    <trip id="veh183" type="veh_passenger" depart="1776.15" departLane="best" departSpeed="max" from="-80698388#3" to="1174525661"/>
    <trip id="veh184" type="veh_passenger" depart="1785.86" departLane="best" departSpeed="max" from="38089870" to="-2331704"/>
    <trip id="veh185" type="veh_passenger" depart="1795.56" departLane="best" departSpeed="max" from="38089869#0" to="1174525661"/>
    <trip id="veh186" type="veh_passenger" depart="1805.27" departLane="best" departSpeed="max" from="-445119454#1" to="-2331704"/>
    <trip id="veh190" type="veh_passenger" depart="1844.09" departLane="best" departSpeed="max" from="38089870" to="1174525661"/>
    <trip id="veh191" type="veh_passenger" depart="1853.80" departLane="best" departSpeed="max" from="-80698388#3" to="1174525661"/>
    <trip id="veh193" type="veh_passenger" depart="1873.21" departLane="best" departSpeed="max" from="1174714318" to="1174525661"/>
    <trip id="veh196" type="veh_passenger" depart="1902.33" departLane="best" departSpeed="max" from="38089870" to="1174525661"/>
    <trip id="veh200" type="veh_passenger" depart="1941.15" departLane="best" departSpeed="max" from="38089869#0" to="1174525661"/>
    <trip id="veh202" type="veh_passenger" depart="1960.56" departLane="best" departSpeed="max" from="1174714318" to="80698388#3"/>
    <trip id="veh204" type="veh_passenger" depart="1979.97" departLane="best" departSpeed="max" from="-1174525661" to="80698388#3"/>
    <trip id="veh205" type="veh_passenger" depart="1989.68" departLane="best" departSpeed="max" from="-80698388#3" to="-2331704"/>
    <trip id="veh207" type="veh_passenger" depart="2009.09" departLane="best" departSpeed="max" from="-445119454#1" to="4990967#1"/>
    <trip id="veh210" type="veh_passenger" depart="2038.21" departLane="best" departSpeed="max" from="1174714318" to="4976151#4"/>
    <trip id="veh211" type="veh_passenger" depart="2047.91" departLane="best" departSpeed="max" from="1174714318" to="80698388#3"/>
    <trip id="veh212" type="veh_passenger" depart="2057.62" departLane="best" departSpeed="max" from="1174714318" to="1174525661"/>
    <trip id="veh219" type="veh_passenger" depart="2125.56" departLane="best" departSpeed="max" from="1174714318" to="51972127#1"/>
    <trip id="veh222" type="veh_passenger" depart="2154.68" departLane="best" departSpeed="max" from="1330180555#0" to="-2331704"/>
    <trip id="veh224" type="veh_passenger" depart="2174.09" departLane="best" departSpeed="max" from="29505715" to="4976151#4"/>
    <trip id="veh225" type="veh_passenger" depart="2183.79" departLane="best" departSpeed="max" from="38089870" to="-2331704"/>
    <trip id="veh230" type="veh_passenger" depart="2232.32" departLane="best" departSpeed="max" from="1174714318" to="4976151#4"/>
    <trip id="veh231" type="veh_passenger" depart="2242.03" departLane="best" departSpeed="max" from="-1174525661" to="-2331704"/>
    <trip id="veh232" type="veh_passenger" depart="2251.73" departLane="best" departSpeed="max" from="38089870" to="1174525661"/>
    <trip id="veh236" type="veh_passenger" depart="2290.56" departLane="best" departSpeed="max" from="-4976151#4" to="1174525661"/>
    <trip id="veh239" type="veh_passenger" depart="2319.68" departLane="best" departSpeed="max" from="1174714318" to="1174525661"/>
    <trip id="veh241" type="veh_passenger" depart="2339.09" departLane="best" departSpeed="max" from="29505715" to="718188323"/>
    <trip id="veh243" type="veh_passenger" depart="2358.50" departLane="best" departSpeed="max" from="1174714318" to="51972127#1"/>
    <trip id="veh244" type="veh_passenger" depart="2368.20" departLane="best" departSpeed="max" from="1330180555#0" to="1174525661"/>
    <trip id="veh245" type="veh_passenger" depart="2377.91" departLane="best" departSpeed="max" from="-80698388#3" to="1174525661"/>
    <trip id="veh246" type="veh_passenger" depart="2387.62" departLane="best" from="311837943#3" to="-2331704"/>
    <trip id="veh247" type="veh_passenger" depart="2397.32" departLane="best" departSpeed="max" from="-1174525661" to="-2331704"/>
    <trip id="veh248" type="veh_passenger" depart="2407.03" departLane="best" departSpeed="max" from="1174714318" to="80698388#3"/>
    <trip id="veh249" type="veh_passenger" depart="2416.73" departLane="best" departSpeed="max" from="1174714318" to="51972127#1"/>
    <trip id="veh252" type="veh_passenger" depart="2445.85" departLane="best" departSpeed="max" from="-4976151#4" to="-2331704"/>
    <trip id="veh253" type="veh_passenger" depart="2455.56" departLane="best" departSpeed="max" from="9930081" to="-2331704"/>
    <trip id="veh254" type="veh_passenger" depart="2465.26" departLane="best" departSpeed="max" from="29505715" to="80698388#3"/>
    <trip id="veh255" type="veh_passenger" depart="2474.97" departLane="best" departSpeed="max" from="9930081" to="4976151#4"/>
    <trip id="veh258" type="veh_passenger" depart="2504.08" departLane="best" departSpeed="max" from="1330180555#0" to="1174525661"/>
    <trip id="veh261" type="veh_passenger" depart="2533.20" departLane="best" departSpeed="max" from="1174714318" to="51972127#1"/>
    <trip id="veh263" type="veh_passenger" depart="2552.61" departLane="best" departSpeed="max" from="-1174525661" to="80698388#3"/>
    <trip id="veh268" type="veh_passenger" depart="2601.14" departLane="best" departSpeed="max" from="-51972127#1" to="-2331704"/>
    <trip id="veh269" type="veh_passenger" depart="2610.85" departLane="best" departSpeed="max" from="9930081" to="-2331704"/>
    <trip id="veh272" type="veh_passenger" depart="2639.97" departLane="best" departSpeed="max" from="1174714318" to="80698388#3"/>
    <trip id="veh273" type="veh_passenger" depart="2649.67" departLane="best" departSpeed="max" from="-1174525661" to="-2331704"/>
    <trip id="veh275" type="veh_passenger" depart="2669.08" departLane="best" departSpeed="max" from="1330180555#0" to="1174525661"/>
    <trip id="veh278" type="veh_passenger" depart="2698.20" departLane="best" departSpeed="max" from="-1174525661" to="-2331704"/>
    <trip id="veh280" type="veh_passenger" depart="2717.61" departLane="best" departSpeed="max" from="1330180555#0" to="-2331704"/>
    <trip id="veh282" type="veh_passenger" depart="2737.02" departLane="best" departSpeed="max" from="-1174525661" to="-2331704"/>
    <trip id="veh283" type="veh_passenger" depart="2746.73" departLane="best" departSpeed="max" from="38089869#0" to="1174525661"/>
    <trip id="veh284" type="veh_passenger" depart="2756.43" departLane="best" departSpeed="max" from="38089869#0" to="1174525661"/>
    <trip id="veh285" type="veh_passenger" depart="2766.14" departLane="best" departSpeed="max" from="9930081" to="-2331704"/>
    <trip id="veh289" type="veh_passenger" depart="2804.96" departLane="best" departSpeed="max" from="1330180555#0" to="1174525661"/>
    <trip id="veh291" type="veh_passenger" depart="2824.37" departLane="best" departSpeed="max" from="-51972127#1" to="-2331704"/>
    <trip id="veh293" type="veh_passenger" depart="2843.79" departLane="best" departSpeed="max" from="-51972127#1" to="-2331704"/>
    <trip id="veh294" type="veh_passenger" depart="2853.49" departLane="best" departSpeed="max" from="38089870" to="-2331704"/>
    <trip id="veh296" type="veh_passenger" depart="2872.90" departLane="best" departSpeed="max" from="38089870" to="1174525661"/>
    <trip id="veh297" type="veh_passenger" depart="2882.61" departLane="best" departSpeed="max" from="1174714318" to="1174525661"/>
    <trip id="veh298" type="veh_passenger" depart="2892.31" departLane="best" departSpeed="max" from="-4976151#4" to="-2331704"/>
    <trip id="veh300" type="veh_passenger" depart="2911.73" departLane="best" departSpeed="max" from="29505715" to="80698388#3"/>
    <trip id="veh302" type="veh_passenger" depart="2931.14" departLane="best" departSpeed="max" from="1174714318" to="4976151#4"/>
    <trip id="veh303" type="veh_passenger" depart="2940.84" departLane="best" departSpeed="max" from="38089870" to="1174525661"/>
    <trip id="veh304" type="veh_passenger" depart="2950.55" departLane="best" departSpeed="max" from="1330180555#0" to="-2331704"/>
    <trip id="veh305" type="veh_passenger" depart="2960.25" departLane="best" departSpeed="max" from="-445119454#1" to="-4990967#1"/>
    <trip id="veh307" type="veh_passenger" depart="2979.67" departLane="best" departSpeed="max" from="38089870" to="1174525661"/>
    <trip id="veh308" type="veh_passenger" depart="2989.37" departLane="best" departSpeed="max" from="-51972127#1" to="-2331704"/>
    <trip id="veh309" type="veh_passenger" depart="2999.08" departLane="best" departSpeed="max" from="1330180555#0" to="-2331704"/>
    <trip id="veh313" type="veh_passenger" depart="3037.90" departLane="best" departSpeed="max" from="38089869#0" to="1174525661"/>
    <trip id="veh316" type="veh_passenger" depart="3067.02" departLane="best" departSpeed="max" from="1330180555#0" to="-2331704"/>
    <trip id="veh322" type="veh_passenger" depart="3125.25" departLane="best" departSpeed="max" from="1174714318" to="1174525661"/>
    <trip id="veh324" type="veh_passenger" depart="3144.66" departLane="best" departSpeed="max" from="-1174525661" to="-2331704"/>
    <trip id="veh325" type="veh_passenger" depart="3154.37" departLane="best" departSpeed="max" from="1174714318" to="4981404#2"/>
    <trip id="veh327" type="veh_passenger" depart="3173.78" departLane="best" departSpeed="max" from="1174714318" to="1174525661"/>
    <trip id="veh330" type="veh_passenger" depart="3202.90" departLane="best" departSpeed="max" from="29505715" to="4976151#4"/>
    <trip id="veh333" type="veh_passenger" depart="3232.02" departLane="best" departSpeed="max" from="1174714318" to="4976151#4"/>
    <trip id="veh334" type="veh_passenger" depart="3241.72" departLane="best" departSpeed="max" from="1174714318" to="1174525661"/>
    <trip id="veh335" type="veh_passenger" depart="3251.43" departLane="best" departSpeed="max" from="1174714318" to="51972127#1"/>
    <trip id="veh336" type="veh_passenger" depart="3261.13" departLane="best" departSpeed="max" from="1330180555#0" to="-2331704"/>
    <trip id="veh341" type="veh_passenger" depart="3309.66" departLane="best" departSpeed="max" from="38089870" to="1174525661"/>
    <trip id="veh342" type="veh_passenger" depart="3319.37" departLane="best" departSpeed="max" from="1174714318" to="4976151#4"/>
    <trip id="veh344" type="veh_passenger" depart="3338.78" departLane="best" departSpeed="max" from="38089870" to="1174525661"/>
    <trip id="veh345" type="veh_passenger" depart="3348.49" departLane="best" departSpeed="max" from="-1174525661" to="-2331704"/>
    <trip id="veh348" type="veh_passenger" depart="3377.60" departLane="best" departSpeed="max" from="-80698388#3" to="1174525661"/>
    <trip id="veh351" type="veh_passenger" depart="3406.72" departLane="best" departSpeed="max" from="-4976151#4" to="1174525661"/>
    <trip id="veh352" type="veh_passenger" depart="3416.43" departLane="best" departSpeed="max" from="38089870" to="1174525661"/>
    <trip id="veh355" type="veh_passenger" depart="3445.54" departLane="best" departSpeed="max" from="-4976151#4" to="1174525661"/>
    <trip id="veh364" type="veh_passenger" depart="3532.89" departLane="best" departSpeed="max" from="-51972127#1" to="-2331704"/>
    <trip id="veh371" type="veh_passenger" depart="3600.83" departLane="best" departSpeed="max" from="9930081" to="4976151#4"/>
    <trip id="veh372" type="veh_passenger" depart="3610.54" departLane="best" departSpeed="max" from="38089870" to="-2331704"/>
    <trip id="veh374" type="veh_passenger" depart="3629.95" departLane="best" departSpeed="max" from="38089870" to="1174525661"/>
    <trip id="veh377" type="veh_passenger" depart="3659.07" departLane="best" departSpeed="max" from="-4976151#4" to="-2331704"/>
    <trip id="veh380" type="veh_passenger" depart="3688.19" departLane="best" departSpeed="max" from="-51972127#1" to="-2331704"/>
    <trip id="veh385" type="veh_passenger" depart="3736.72" departLane="best" departSpeed="max" from="38089870" to="1174525661"/>
    <trip id="veh386" type="veh_passenger" depart="3746.42" departLane="best" departSpeed="max" from="-445119454#1" to="-2331704"/>
    <trip id="veh387" type="veh_passenger" depart="3756.13" departLane="best" departSpeed="max" from="-80698388#3" to="-2331704"/>
    <trip id="veh390" type="veh_passenger" depart="3785.24" departLane="best" departSpeed="max" from="-80698388#3" to="1174525661"/>
    <trip id="veh392" type="veh_passenger" depart="3804.66" departLane="best" departSpeed="max" from="1330180555#0" to="-2331704"/>
    <trip id="veh393" type="veh_passenger" depart="3814.36" departLane="best" departSpeed="max" from="9930081" to="-2331704"/>
    <trip id="veh394" type="veh_passenger" depart="3824.07" departLane="best" departSpeed="max" from="1174714318" to="1174525661"/>
    <trip id="veh397" type="veh_passenger" depart="3853.18" departLane="best" from="33718247#0" to="1174525661"/>
    <trip id="veh399" type="veh_passenger" depart="3872.60" departLane="best" departSpeed="max" from="-4976151#4" to="-2331704"/>
    <trip id="veh400" type="veh_passenger" depart="3882.30" departLane="best" departSpeed="max" from="1174714318" to="4976151#4"/>
    <trip id="veh401" type="veh_passenger" depart="3892.01" departLane="best" departSpeed="max" from="-1174525661" to="4976151#4"/>
    <trip id="veh405" type="veh_passenger" depart="3930.83" departLane="best" departSpeed="max" from="1174714318" to="80698388#3"/>
    <trip id="veh409" type="veh_passenger" depart="3969.65" departLane="best" departSpeed="max" from="1174714318" to="80698388#3"/>
    <trip id="veh410" type="veh_passenger" depart="3979.36" departLane="best" departSpeed="max" from="1174714318" to="4976151#4"/>
    <trip id="veh411" type="veh_passenger" depart="3989.06" departLane="best" departSpeed="max" from="29505715" to="-2331704"/>
    <trip id="veh412" type="veh_passenger" depart="3998.77" departLane="best" departSpeed="max" from="1174714318" to="4976151#4"/>
    <trip id="veh416" type="veh_passenger" depart="4037.59" departLane="best" departSpeed="max" from="-4976151#4" to="-2331704"/>
    <trip id="veh418" type="veh_passenger" depart="4057.01" departLane="best" departSpeed="max" from="9930081" to="80698388#3"/>
    <trip id="veh420" type="veh_passenger" depart="4076.42" departLane="best" departSpeed="max" from="29505715" to="80698388#3"/>
    <trip id="veh421" type="veh_passenger" depart="4086.12" departLane="best" departSpeed="max" from="1174714318" to="1174525661"/>
    <trip id="veh422" type="veh_passenger" depart="4095.83" departLane="best" departSpeed="max" from="1174714318" to="1174525661"/>
    <trip id="veh426" type="veh_passenger" depart="4134.65" departLane="best" departSpeed="max" from="-4976151#4" to="-2331704"/>
    <trip id="veh427" type="veh_passenger" depart="4144.36" departLane="best" departSpeed="max" from="1174714318" to="51972127#1"/>
    <trip id="veh430" type="veh_passenger" depart="4173.47" departLane="best" departSpeed="max" from="38089870" to="1174525661"/>
    <trip id="veh432" type="veh_passenger" depart="4192.89" departLane="best" departSpeed="max" from="-1174525661" to="4976151#4"/>
    <trip id="veh434" type="veh_passenger" depart="4212.30" departLane="best" departSpeed="max" from="1174714318" to="1174525661"/>
    <trip id="veh437" type="veh_passenger" depart="4241.41" departLane="best" departSpeed="max" from="1174714318" to="4976151#4"/>
    <trip id="veh438" type="veh_passenger" depart="4251.12" departLane="best" departSpeed="max" from="38089870" to="-2331704"/>
    <trip id="veh440" type="veh_passenger" depart="4270.53" departLane="best" departSpeed="max" from="38089869#0" to="1174525661"/>
    <trip id="veh441" type="veh_passenger" depart="4280.24" departLane="best" departSpeed="max" from="-1174525661" to="80698388#3"/>
    <trip id="veh442" type="veh_passenger" depart="4289.94" departLane="best" departSpeed="max" from="-1174525661" to="-310980426"/>
    <trip id="veh446" type="veh_passenger" depart="4328.77" departLane="best" departSpeed="max" from="1174714318" to="51972127#1"/>
    <trip id="veh447" type="veh_passenger" depart="4338.47" departLane="best" departSpeed="max" from="1174714318" to="4976151#4"/>
    <trip id="veh448" type="veh_passenger" depart="4348.18" departLane="best" departSpeed="max" from="1330180555#0" to="1174525661"/>
    <trip id="veh449" type="veh_passenger" depart="4357.88" departLane="best" departSpeed="max" from="1174714318" to="1174525661"/>
    <trip id="veh450" type="veh_passenger" depart="4367.59" departLane="best" departSpeed="max" from="1174714318" to="4976151#4"/>
    <trip id="veh454" type="veh_passenger" depart="4406.41" departLane="best" departSpeed="max" from="9930081" to="-2331704"/>
    <trip id="veh459" type="veh_passenger" depart="4454.94" departLane="best" departSpeed="max" from="-445119454#1" to="-2331704"/>
    <trip id="veh462" type="veh_passenger" depart="4484.06" departLane="best" departSpeed="max" from="-4976151#4" to="-2331704"/>
    <trip id="veh463" type="veh_passenger" depart="4493.76" departLane="best" departSpeed="max" from="1174714318" to="51972127#1"/>
    <trip id="veh464" type="veh_passenger" depart="4503.47" departLane="best" departSpeed="max" from="1174714318" to="51972127#1"/>
    <trip id="veh465" type="veh_passenger" depart="4513.18" departLane="best" departSpeed="max" from="29505715" to="4976151#4"/>