<?xml version="1.0" encoding="UTF-8"?>

<!-- generated on 2025-01-26 11:39:32 by Eclipse SUMO polyconvert Version 1.21.0
<polyconvertConfiguration xmlns:xsi="http://www.w3.org/2001/XMLSchema-instance" xsi:noNamespaceSchemaLocation="http://sumo.dlr.de/xsd/polyconvertConfiguration.xsd">

    <input>
        <net-file value="osm.net.xml.gz"/>
        <osm-files value="osm_bbox.osm.xml.gz"/>
        <osm.keep-full-type value="true"/>
        <osm.merge-relations value="1"/>
        <type-file value="${SUMO_HOME}\data\typemap\osmPolyconvert.typ.xml"/>
    </input>

    <output>
        <output-file value="osm.poly.xml.gz"/>
    </output>

    <report>
        <verbose value="true"/>
    </report>

</polyconvertConfiguration>
-->

<additional xmlns:xsi="http://www.w3.org/2001/XMLSchema-instance" xsi:noNamespaceSchemaLocation="http://sumo.dlr.de/xsd/additional_file.xsd">
    <location netOffset="-569493.37,-7032761.34" convBoundary="-4.59,-2.07,370.51,833.24" origBoundary="10.392122,63.416564,10.399423,63.424004" projParameter="+proj=utm +zone=32 +ellps=WGS84 +datum=WGS84 +units=m +no_defs"/>

    <poly id="1039395850" type="building.apartments" color="255,230,230" fill="1" layer="-1.00" shape="39.745187,705.794032 39.470540,702.121134 43.772457,701.768867 43.971267,705.484700 39.745187,705.794032"/>
    <poly id="1039395853" type="building.yes" color="255,230,230" fill="1" layer="-1.00" shape="147.030174,427.759529 130.112198,495.145673 90.966397,485.076063 93.953976,473.081464 92.065275,472.672553 94.045968,464.724212 83.499649,461.953498 84.318165,458.761355 95.654632,414.670575 147.030174,427.759529"/>
    <poly id="1039395869" type="building.apartments" color="255,230,230" fill="1" layer="-1.00" shape="43.971267,705.484700 44.093227,707.683049 44.961571,724.465025 45.001788,724.911726 41.062785,725.338757 40.343710,714.779314 39.745187,705.794032 43.971267,705.484700"/>
    <poly id="1039395870" type="building.garage" color="255,230,230" fill="1" layer="-1.00" shape="38.051271,726.053459 37.491607,717.347665 35.839752,717.534655 35.693414,715.079425 40.343710,714.779314 41.062785,725.338757 41.313783,727.573350 38.259630,727.952755 38.051271,726.053459"/>
    <poly id="1039395872" type="building.commercial" color="255,230,230" fill="1" layer="-1.00" shape="55.743954,706.933356 44.093227,707.683049 43.971267,705.484700 43.772457,701.768867 43.727394,701.544974 55.378143,700.795279 55.743954,706.933356"/>
    <poly id="1039395877" type="building.garage" color="255,230,230" fill="1" layer="-1.00" shape="192.804295,203.123664 193.880572,199.569356 199.462053,201.262532 198.385770,204.816838 192.804295,203.123664"/>
    <poly id="1039395882" type="building.garage" color="255,230,230" fill="1" layer="-1.00" shape="122.385579,221.328887 121.456957,224.986742 114.116074,223.132802 115.044689,219.474944 122.385579,221.328887"/>
    <poly id="1039395885" type="building.garage" color="255,230,230" fill="1" layer="-1.00" shape="19.327256,21.006347 20.712356,17.024017 28.336334,19.664078 26.951225,23.646405 19.327256,21.006347"/>
    <poly id="1039395886" type="building.garage" color="255,230,230" fill="1" layer="-1.00" shape="17.164300,26.309250 18.648844,22.117313 26.400425,24.860454 24.915871,29.052388 17.164300,26.309250"/>
    <poly id="1039395924" type="building.apartments" color="255,230,230" fill="1" layer="-1.00" shape="117.632325,242.613954 108.046881,240.176175 108.977910,236.406911 108.134172,236.165634 107.611758,234.928240 108.159422,232.711026 109.072476,232.062159 109.916214,232.303437 110.078089,231.749677 110.924253,231.879551 111.145744,230.881262 114.176129,231.615964 114.559497,230.063915 119.826446,231.293134 119.221581,233.843470 119.668408,233.964654 117.632325,242.613954"/>
    <poly id="1039395925" type="building.garage" color="255,230,230" fill="1" layer="-1.00" shape="120.596887,227.330901 119.790837,230.634764 112.731584,228.920705 113.537627,225.616841 120.596887,227.330901"/>
    <poly id="1039395926" type="building.garage" color="255,230,230" fill="1" layer="-1.00" shape="99.818880,224.471184 91.990639,222.751582 93.542740,215.685566 101.370999,217.405172 99.818880,224.471184"/>
    <poly id="1039395927" type="building.garage" color="255,230,230" fill="1" layer="-1.00" shape="109.106907,182.754469 111.481335,183.341142 110.048615,189.049977 107.709134,188.464066 107.632460,188.774476 101.358897,187.211293 102.955902,180.837290 109.194534,182.399715 109.106907,182.754469"/>
    <poly id="1039395928" type="building.garage" color="255,230,230" fill="1" layer="-1.00" shape="89.617714,213.605083 84.036974,212.335651 85.251744,207.001016 90.832493,208.270450 89.617714,213.605083"/>
    <poly id="1039395929" type="building.apartments" color="255,230,230" fill="1" layer="-1.00" shape="286.013329,9.995268 305.079208,8.293645 304.135582,8.050137 303.916449,8.937009 298.152420,7.585191 296.892418,12.684709 286.013329,9.995268"/>
    <poly id="1039395930" type="building.apartments" color="255,230,230" fill="1" layer="-1.00" shape="292.146935,28.742395 282.226104,25.628049 286.013329,9.995268 296.892418,12.684709 295.077303,20.335620 298.207693,21.072674 297.328741,24.731569 293.751504,23.873308 292.543866,28.862513 292.146935,28.742395"/>
    <poly id="1039395931" type="building.apartments" color="255,230,230" fill="1" layer="-1.00" shape="292.146935,28.742395 287.699888,47.147192 277.265329,44.690391 281.829173,25.507932 282.226104,25.628049 292.146935,28.742395"/>
    <poly id="1039395932" type="building.house" color="255,230,230" fill="1" layer="-1.00" shape="282.431411,56.506069 284.485802,56.885263 283.930960,59.882492 281.886554,59.503515 281.490449,61.634844 275.810043,60.574676 277.252884,52.815322 282.923562,53.864134 282.431411,56.506069"/>
    <poly id="1039395933" type="building.apartments" color="255,230,230" fill="1" layer="-1.00" shape="267.682338,81.039172 272.464088,63.310393 282.884005,66.435601 281.143173,72.973572 283.379825,73.468200 282.219707,78.569902 279.735892,77.958426 278.049851,84.274680 267.682338,81.039172"/>
    <poly id="1039395934" type="building.apartments" color="255,230,230" fill="1" layer="-1.00" shape="295.219810,89.330514 297.479307,81.912214 294.948009,81.188233 295.914628,78.088536 298.445928,78.812518 300.707870,71.282816 310.828219,74.401579 303.579789,99.878449 292.565833,96.517293 294.611056,89.763057 295.057897,89.884265 295.219810,89.330514"/>
    <poly id="1039395935" type="building.apartments" color="255,230,230" fill="1" layer="-1.00" shape="289.378814,109.822569 288.799235,108.918268 292.565833,96.517293 303.579789,99.878449 299.848482,112.948923 289.378814,109.822569"/>
    <poly id="1039395936" type="building.apartments" color="255,230,230" fill="1" layer="-1.00" shape="289.378814,109.822569 299.848482,112.948923 295.867610,126.013954 283.762820,122.294651 285.646099,116.094160 286.489856,116.335484 287.764565,115.137274 289.378814,109.822569"/>
    <poly id="1039395937" type="building.apartments" color="255,230,230" fill="1" layer="-1.00" shape="263.220910,100.112426 273.593226,103.125112 278.952877,104.690982 277.802497,109.347070 272.388073,108.002921 271.785498,110.441826 272.581769,110.570654 271.371760,115.671271 270.575490,115.542443 268.877333,122.415721 258.505077,119.403050 259.760124,114.526325 258.978432,113.729077 259.623626,111.625471 260.679211,111.314124 261.436394,108.655677 260.412397,107.518773 261.005244,105.525481 261.763748,105.096199 263.220910,100.112426"/>
    <poly id="1039395943" type="building.apartments" color="255,230,230" fill="1" layer="-1.00" shape="363.269559,19.483844 356.619172,17.555274 349.594277,41.922365 337.436869,38.313173 366.953730,6.300950 363.269559,19.483844"/>
    <poly id="1039395944" type="building.apartments" color="255,230,230" fill="1" layer="-1.00" shape="327.431654,18.478313 316.369949,15.004583 317.231902,12.125520 313.038588,12.033988 307.673931,10.690870 330.022409,9.618326 330.547211,10.744353 329.897089,13.070753 328.891384,13.383166 327.431654,18.478313"/>
    <poly id="1039395945" type="building.apartments" color="255,230,230" fill="1" layer="-1.00" shape="327.431654,18.478313 327.828584,18.598436 326.430938,23.137654 326.661082,24.034333 326.118102,26.028702 325.409491,26.459060 324.442829,29.558748 324.770381,30.569011 324.177483,32.562291 323.366601,33.101873 322.018887,37.642182 311.898430,34.523385 310.904892,34.278785 312.797994,27.632695 311.904295,27.390274 313.328667,21.625609 314.422049,21.872389 316.369949,15.004583 327.431654,18.478313"/>
    <poly id="1039395947" type="building.apartments" color="255,230,230" fill="1" layer="-1.00" shape="215.326985,104.640927 212.481088,116.058942 191.369995,110.806213 191.477115,110.474177 194.520189,99.171899 215.326985,104.640927"/>
    <poly id="1039395948" type="building.apartments" color="255,230,230" fill="1" layer="-1.00" shape="181.074085,138.668977 185.914169,127.405845 207.217834,137.566836 204.127255,148.756610 181.074085,138.668977"/>
    <poly id="1039395949" type="building.apartments" color="255,230,230" fill="1" layer="-1.00" shape="226.479765,64.982525 236.462588,67.540768 236.861944,67.549476 229.603292,95.812694 218.924115,93.127834 226.182677,64.864592 226.479765,64.982525"/>
    <poly id="1039395950" type="building.garage" color="255,230,230" fill="1" layer="-1.00" shape="142.371319,64.019352 138.798251,63.428851 139.574044,58.764562 143.137132,59.354846 143.229133,58.799566 148.230532,59.621797 147.310520,65.174598 142.319114,64.352585 142.371319,64.019352"/>
    <poly id="1039395952" type="building.garage" color="255,230,230" fill="1" layer="-1.00" shape="6.388085,190.774427 8.769352,185.531992 15.682946,188.669296 13.301669,193.911725 6.388085,190.774427"/>
    <poly id="1039395953" type="building.garage" color="255,230,230" fill="1" layer="-1.00" shape="59.773736,170.635749 61.110416,167.042481 68.422570,169.765032 67.085883,173.358297 59.773736,170.635749"/>
    <poly id="1039395954" type="building.garage" color="255,230,230" fill="1" layer="-1.00" shape="44.914064,165.219023 46.305932,162.072775 51.430440,164.346473 50.038567,167.492718 44.914064,165.219023"/>
    <poly id="1039395955" type="building.garage" color="255,230,230" fill="1" layer="-1.00" shape="227.283949,353.138178 222.672233,352.101392 224.165673,345.446544 228.777399,346.483332 227.283949,353.138178"/>
    <poly id="1039395963" type="building.house" color="255,230,230" fill="1" layer="-1.00" shape="65.260155,712.490299 69.115301,712.016891 70.817071,711.831003 70.960958,714.397639 73.810643,714.236730 74.239874,722.048041 71.589833,722.213293 71.630047,722.659995 65.578905,723.085623 65.010608,712.484870 65.260155,712.490299"/>
    <poly id="1039395964" type="building.garage" color="255,230,230" fill="1" layer="-1.00" shape="24.410003,712.716390 30.910342,712.300452 31.092059,715.425191 24.591726,715.841129 24.410003,712.716390"/>
    <poly id="1039395967" type="building.garage" color="255,230,230" fill="1" layer="-1.00" shape="-4.591917,735.268912 -4.402904,738.059437 -4.591917,735.268912"/>
    <poly id="1039395973" type="building.garage" color="255,230,230" fill="1" layer="-1.00" shape="50.450535,602.271823 53.661812,601.561475 55.035851,607.721481 51.824580,608.431828 50.450535,602.271823"/>
    <poly id="1039395974" type="building.garage" color="255,230,230" fill="1" layer="-1.00" shape="49.891240,601.813831 48.529594,595.542641 51.942945,594.725229 53.352073,601.108911 49.891240,601.813831"/>
    <poly id="1039395975" type="building.house" color="255,230,230" fill="1" layer="-1.00" shape="60.016918,600.027863 69.703102,597.786538 71.712561,606.412424 62.026402,608.653743 60.975385,604.172611 59.770248,604.480765 58.976517,604.240586 58.539433,603.673794 58.314111,602.554326 58.585477,601.557119 59.039525,601.344082 60.244663,601.035928 60.016918,600.027863"/>
    <poly id="1039395977" type="building.apartments" color="255,230,230" fill="1" layer="-1.00" shape="54.054452,672.122110 60.557302,671.594827 60.486564,670.255808 59.837732,670.241693 59.509715,664.661722 65.159261,664.338799 66.155490,669.041655 67.047941,683.104619 54.997844,683.845586 54.054452,672.122110"/>
    <poly id="1039395980" type="building.civic" color="255,230,230" fill="1" layer="-1.00" shape="293.338223,613.047653 293.589966,612.952837 298.723981,626.874413 290.815885,629.778014 291.659685,632.070152 287.189684,633.711320 286.340890,631.419074 285.112614,631.871533 279.983541,617.950087 293.338223,613.047653"/>
    <poly id="1039396011" type="building.warehouse" color="255,230,230" fill="1" layer="-1.00" shape="-0.779635,647.858291 -0.846447,644.958966 6.722257,644.789109 6.789063,647.688435 -0.779635,647.858291"/>
    <poly id="1039396012" type="amenity.parking" color="184,184,179" fill="1" layer="-1.00" shape="263.868943,390.917460 256.239247,360.657674 257.838758,356.011376 271.995004,352.642124 280.233437,387.039139 263.868943,390.917460"/>
    <poly id="1039396023" type="building.garage" color="255,230,230" fill="1" layer="-1.00" shape="26.696190,161.735579 21.194463,159.353411 23.371018,154.340595 28.872752,156.722767 26.696190,161.735579"/>
    <poly id="1039396024" type="building.garage" color="255,230,230" fill="1" layer="-1.00" shape="16.252643,185.895264 10.513042,183.429923 12.638194,178.482857 18.377803,180.948202 16.252643,185.895264"/>
    <poly id="1039396030" type="amenity.parking" color="184,184,179" fill="1" layer="-1.00" shape="44.011815,502.489510 52.304132,474.805689 44.011815,502.489510"/>
    <poly id="1039396037" type="building.garage" color="255,230,230" fill="1" layer="-1.00" shape="192.599178,203.598458 199.148593,205.791991 197.423368,210.937133 190.873963,208.743603 192.599178,203.598458"/>
    <poly id="1039396040" type="building.terrace" color="255,230,230" fill="1" layer="-1.00" shape="305.778703,674.040953 301.471508,660.906464 306.653611,659.124822 311.008265,672.371813 305.778703,674.040953"/>
    <poly id="1039396042" type="building.apartments" color="255,230,230" fill="1" layer="-1.00" shape="181.074085,138.668977 165.145954,131.634581 168.979996,116.114155 179.416821,118.459200 178.202109,123.782659 185.914169,127.405845 181.074085,138.668977"/>
    <poly id="1039396043" type="building.apartments" color="255,230,230" fill="1" layer="-1.00" shape="248.175208,15.968764 239.432953,13.771909 238.736497,13.645266 250.458065,14.346695 248.720570,13.862978 248.175208,15.968764"/>
    <poly id="1039396044" type="building.retail" color="255,230,230" fill="1" layer="-1.00" shape="326.594501,653.764453 322.754841,642.089084 324.264321,641.564760 324.121888,641.227279 345.599174,634.117263 347.094111,638.831110 345.584626,639.355423 346.571913,642.163413 348.732668,641.541870 350.230030,646.144316 347.512962,647.088076 347.887911,648.210837 343.661364,649.678913 343.286414,648.556153 342.078830,648.975605 342.451347,650.209768 340.288165,650.942719 339.865737,649.707466 326.687023,654.100845 326.594501,653.764453"/>
    <poly id="1039396053" type="building.garage" color="255,230,230" fill="1" layer="-1.00" shape="44.709907,33.584327 46.536987,28.341012 50.755392,29.803657 48.928306,35.046970 44.709907,33.584327"/>
    <poly id="1039396057" type="building.garage" color="255,230,230" fill="1" layer="-1.00" shape="155.193087,29.100539 157.329947,29.592904 156.505932,33.030116 154.369074,32.537751 154.257103,33.092596 150.230561,32.224712 151.278510,27.677808 155.354978,28.546781 155.193087,29.100539"/>
    <poly id="1039396060" type="amenity.parking" color="184,184,179" fill="1" layer="-1.00" shape="42.829785,97.541828 55.867889,104.289836 53.460172,109.364478 61.921183,113.003649 64.278992,107.927926 88.872941,118.382596 84.259527,128.424774 64.865915,119.978009 62.867727,129.185447 74.545269,131.891505 71.456603,145.310569 59.833873,142.382801 58.086264,149.255103 80.549933,154.313466 77.866428,165.177837 36.607416,154.026492 36.769281,153.472728 22.641892,148.595876 29.564786,128.795641 28.723436,128.442981 42.829785,97.541828"/>
    <poly id="1039396061" type="building.apartments" color="255,230,230" fill="1" layer="-1.00" shape="36.892476,153.319368 22.194026,148.062295 28.323537,130.986643 43.022058,136.243744 36.892476,153.319368"/>
    <poly id="1039396062" type="building.apartments" color="255,230,230" fill="1" layer="-1.00" shape="51.415923,158.583849 54.101765,147.608053 80.704535,154.093917 78.018606,165.069691 51.415923,158.583849"/>
    <poly id="1039396063" type="building.apartments" color="255,230,230" fill="1" layer="-1.00" shape="55.567546,141.063990 58.855823,127.649254 74.901969,131.564895 71.613628,144.979615 55.567546,141.063990"/>
    <poly id="1039396064" type="building.apartments" color="255,230,230" fill="1" layer="-1.00" shape="60.321562,117.204209 65.009648,106.940709 89.389384,118.059463 84.701234,128.322928 60.321562,117.204209"/>
    <poly id="1039396065" type="building.apartments" color="255,230,230" fill="1" layer="-1.00" shape="49.585560,119.656830 35.402577,113.196032 42.901894,96.752054 57.084938,103.212884 49.585560,119.656830"/>
    <poly id="1039396068" type="building.garage" color="255,230,230" fill="1" layer="-1.00" shape="89.410687,24.347177 90.700390,21.310181 95.866973,23.495693 94.577266,26.532688 89.410687,24.347177"/>
    <poly id="1039396069" type="building.warehouse" color="255,230,230" fill="1" layer="-1.00" shape="19.877498,139.296034 16.348188,149.562491 12.184113,148.134504 15.713411,137.868043 19.877498,139.296034"/>
    <poly id="1039396075" type="building.garage" color="255,230,230" fill="1" layer="-1.00" shape="47.955236,20.079480 49.086220,16.760375 53.994412,18.427500 52.863424,21.746604 47.955236,20.079480"/>
    <poly id="1039396081" type="building.garage" color="255,230,230" fill="1" layer="-1.00" shape="53.620469,6.226016 54.770220,2.963049 59.741390,4.720717 58.591634,7.983682 53.620469,6.226016"/>
    <poly id="1039396097" type="building.warehouse" color="255,230,230" fill="1" layer="-1.00" shape="300.428301,600.496322 299.032635,596.720904 303.674094,595.005474 305.069755,598.780894 300.428301,600.496322"/>
    <poly id="1039396099" type="building.garage" color="255,230,230" fill="1" layer="-1.00" shape="130.088751,88.406146 133.801158,89.935908 131.934577,94.464994 128.222173,92.935234 130.088751,88.406146"/>
    <poly id="1039396100" type="building.garage" color="255,230,230" fill="1" layer="-1.00" shape="128.728337,195.854222 127.820740,199.233892 119.856661,197.098876 120.764250,193.719204 128.728337,195.854222"/>
    <poly id="1039396101" type="building.garage" color="255,230,230" fill="1" layer="-1.00" shape="24.037466,6.507919 25.480005,2.181324 33.825199,4.959677 32.382650,9.286269 24.037466,6.507919"/>
    <poly id="1039396103" type="building.garage" color="255,230,230" fill="1" layer="-1.00" shape="347.286223,737.474744 348.688503,732.712726 349.876589,733.184508 352.482833,735.024755 349.844990,739.202495 347.286223,737.474744"/>
    <poly id="1039396104" type="building.warehouse" color="255,230,230" fill="0" layer="-1.00" shape="12.807729,233.869326 12.145174,235.861143"/>
    <poly id="1039396105" type="building.garage" color="255,230,230" fill="1" layer="-1.00" shape="254.142054,665.346171 256.156955,671.408799 250.211895,673.374501 248.196984,667.311877 254.142054,665.346171"/>
    <poly id="1039396111" type="building.terrace" color="255,230,230" fill="1" layer="-1.00" shape="296.806811,664.148347 300.646535,675.823686 295.165002,677.598800 294.618424,677.475413 294.224007,677.243890 293.981752,676.904231 292.859291,673.424566 292.821539,672.866457 293.381430,670.092255 293.106285,668.971680 292.683841,667.736433 292.646089,667.178324 292.805546,666.735977 293.214554,666.299076 293.868249,666.090431 293.588241,665.192663 296.806811,664.148347"/>
    <poly id="1074420801" type="historic.tramway" color="128,255,128" fill="1" layer="-1.00" shape="101.921389,678.981721"/>
    <poly id="1105915860" type="landuse.residential" color="235,235,227" fill="1" layer="-3.00" shape="335.916545,50.529088 334.680595,34.853556 332.877983,34.379515 332.439915,34.771195 330.505182,43.322278 335.916545,50.529088"/>
    <poly id="1124128501" type="landuse.construction" color="194,194,130" fill="1" layer="-3.00" shape="155.995382,420.587505 179.082204,339.883051 167.054191,337.715092 159.877865,352.850633 109.379217,340.259855 94.015925,400.936883 155.995382,420.587505"/>
    <poly id="116909720" type="amenity.university" color="237,199,199" fill="0" layer="-2.00" shape="19.963251,583.764644 44.794922,579.679147 46.518853,586.972471 71.400619,585.864165 82.980373,572.562987 103.671005,573.826924 108.871612,515.681690 77.182034,506.276114 67.494143,503.992245 70.696759,502.077990 72.956081,499.452184 74.012553,497.257181 74.563551,494.883996 74.385444,491.135175 73.059869,487.796071 71.686596,485.960595 70.148897,484.567369 68.374811,483.481081 74.306401,466.077990 75.215720,462.843238 82.644655,434.003844 90.362501,404.056185 92.337803,395.438985 86.022046,393.997505 81.316823,392.669100 7.849058,374.698431 25.275719,243.157189 28.890206,231.956358 18.797398,228.961681 9.868217,225.735977"/>
    <poly id="1200010364" type="landuse.grass" color="194,194,130" fill="0" layer="-3.00" shape="344.309958,789.148071 331.064066,780.410316 315.633810,771.546902 299.581568,763.037794 278.138819,753.508328 263.583398,748.019117 250.091660,744.124720 239.921481,742.242175 223.039675,741.305582 222.969470,744.525155 218.696049,744.487702 218.954932,741.316825 192.674278,740.220054 175.230296,741.021333 162.250132,741.830790 162.139302,744.625941 158.334815,745.066904 157.685189,742.110292 112.132058,744.383916 111.685083,747.483829 112.670471,747.404971 123.605692,749.927927 136.530456,752.806328 146.475237,753.346152 166.353341,752.430567 196.081574,752.732907 219.237768,754.909586 243.297023,759.636203 261.877456,764.187733 286.758247,773.134532 336.475527,795.095935 339.501527,793.490174"/>
    <poly id="1202822434" type="building.construction" color="255,230,230" fill="1" layer="-1.00" shape="176.833500,631.928886 191.555818,671.259616 212.160726,663.828770 198.216743,624.537196 176.833500,631.928886"/>
    <poly id="1205072050" type="natural.scrub" color="140,196,107" fill="1" layer="-4.00" shape="178.184716,706.723570 181.584477,719.815816 202.976631,723.213391 221.670397,724.869272 242.463509,723.907231 246.837132,720.725797 252.146909,718.579048 259.414634,717.322095 262.525334,717.557148 268.038642,711.346687 274.507327,713.070525 279.428202,702.890435 305.770201,717.430960 322.725204,720.966533 353.238885,733.558893 352.187165,721.130753 351.337096,717.757327 332.468198,709.944438 330.050055,704.062427 318.540466,706.575226 315.710468,706.290519 312.742514,704.319804 300.048266,692.250525 292.815536,689.384245 288.561119,688.243691 281.938285,686.717084 250.758315,690.673385 201.164935,705.764337 178.184716,706.723570"/>
    <poly id="1205072051" type="landuse.grass" color="194,194,130" fill="1" layer="-3.00" shape="145.998873,697.273002 146.973524,699.980340 145.523123,701.921534 135.637102,703.032557 133.351759,698.602536 145.998873,697.273002"/>
    <poly id="1205072052" type="landuse.grass" color="194,194,130" fill="1" layer="-3.00" shape="130.012876,701.048750 135.041794,713.630279 136.225652,714.068452 181.584477,719.815816 178.184716,706.723570 173.570087,692.323104 148.052621,697.663252 149.044630,701.407517 148.774403,706.706975 144.617457,707.051112 144.241508,706.429911 139.538746,707.074246 139.109247,706.619064 135.731861,706.935609 131.790905,699.883735 130.012876,701.048750"/>
    <poly id="1205072053" type="landuse.grass" color="194,194,130" fill="1" layer="-3.00" shape="127.591293,702.645578 132.078873,715.092713 131.777650,715.855205 117.076187,723.247896 118.683274,711.357011 117.006138,710.640609 118.767021,706.822544 123.005298,703.660287 127.591293,702.645578"/>
    <poly id="1205072054" type="landuse.grass" color="194,194,130" fill="1" layer="-3.00" shape="236.143544,737.801812 211.808079,736.346064 188.558753,736.374258 164.845855,737.741149 141.380795,738.734659 112.732082,740.217350 114.765753,726.162344 116.897362,726.186462 119.438778,725.506180 132.949240,718.232457 135.005541,717.129233 156.003723,718.901789 179.548210,722.290366 203.397207,725.451696 221.966320,727.327776 237.406346,734.619395 237.502843,736.605433 236.143544,737.801812"/>
    <poly id="1210624457" type="landuse.residential" color="235,235,227" fill="1" layer="-3.00" shape="360.295221,620.617635 350.705572,626.660877 347.539424,628.731689 335.208623,634.079795 327.497233,637.121350 305.683293,644.101534 236.098467,668.664121 188.358749,683.004362 171.878199,687.471303 173.570087,692.323104 178.184716,706.723570 201.164935,705.764337 250.758315,690.673385 265.708108,721.583311 292.008191,733.693049 308.891759,741.640687 337.985883,750.178317"/>
    <poly id="1210624463" type="leisure.park" color="207,245,201" fill="0" layer="-2.00" shape="358.244953,557.666520 347.511529,563.027192 346.657103,566.251927 346.363799,572.821481 346.859098,579.408261 350.379816,591.511374 352.862225,590.339575 356.724597,600.287893 359.465944,600.749028"/>
    <poly id="1210624464" type="landuse.residential" color="235,235,227" fill="1" layer="-3.00" shape="343.101179,612.228278 339.585982,603.301817 336.527586,591.063920 333.989935,570.299795 332.951130,568.248593 330.592582,566.034821 328.267525,564.802604 323.266248,564.927455 308.530490,570.635547 304.679960,574.318733 296.076386,577.508076 318.274852,631.380560 335.449007,623.073096 340.169927,620.233740 342.327752,617.917982 343.084299,615.515890 343.101179,612.228278"/>
    <poly id="1256024177" type="historic.tramway" color="128,255,128" fill="0" layer="-1.00" shape="103.654270,699.159679 107.974982,667.666888 195.894266,320.744466 232.368203,169.657374"/>
    <poly id="1256024185" type="historic.tramway" color="128,255,128" fill="1" layer="-1.00" shape="232.368203,169.657374"/>
    <poly id="1274187003" type="landuse.residential" color="235,235,227" fill="1" layer="-3.00" shape="12.804998,67.865823 66.660645,92.342364 78.907680,97.802655 153.122080,133.367771 154.575229,133.834100 155.907428,133.662492 156.711772,132.732629"/>
    <poly id="1282507836" type="amenity.parking" color="184,184,179" fill="1" layer="-1.00" shape="71.190117,211.053049 65.259297,234.831489 62.871039,236.718887 59.901034,237.111259 18.003770,222.279325 28.360752,196.813723 71.190117,211.053049"/>
    <poly id="1288993921" type="natural.wood" color="140,196,107" fill="1" layer="-4.00" shape="348.900288,188.952298 333.632554,188.752631 329.425002,179.030885 333.061639,165.724316 336.202383,156.831762 355.329617,145.880877 368.976021,152.866385 367.085811,171.951100 348.900288,188.952298"/>
    <poly id="1288993923" type="natural.tree_row" color="140,196,107" fill="0" layer="-4.00" shape="314.257144,422.690039 325.334164,470.680035"/>
    <poly id="1288993924" type="natural.wood" color="140,196,107" fill="1" layer="-4.00" shape="277.591550,280.618203 293.647412,277.636002 301.321011,282.083422 312.593923,287.278172 316.905909,286.034822 316.727858,269.713645 315.020268,261.918968 350.580209,265.236668 351.661017,277.030126 343.821528,286.355036 337.157454,291.024442 334.315069,292.433604 318.751171,293.698759 319.761791,308.711776 332.439460,310.861058 336.267437,313.485867 342.099098,316.288187 350.405454,310.049682 356.724928,321.155080 363.734952,349.796610 366.119183,375.528380 352.456672,375.497418 344.205488,373.043477 336.209234,371.263866 312.175597,355.625557 308.323239,341.765389 300.367189,331.961851 295.726815,329.720600 288.672434,329.856435 286.513080,320.335479 278.617600,286.235725 277.591550,280.618203"/>
    <poly id="1293452365" type="natural.scrub" color="140,196,107" fill="1" layer="-4.00" shape="87.907959,749.284570 89.310749,739.662945 82.307201,739.800317 45.376336,750.621791 33.839545,753.257614 19.523627,755.108584 16.490032,760.515152 38.711364,763.662163 87.907959,749.284570"/>
    <poly id="1293452366" type="landuse.grass" color="194,194,130" fill="0" layer="-3.00" shape="16.490032,760.515152 19.523627,755.108584"/>
    <poly id="1293452385" type="landuse.grass" color="194,194,130" fill="1" layer="-3.00" shape="232.498492,727.267661 232.583816,729.766156 237.849072,731.720026 240.156911,730.990163 240.278296,728.629925 239.351869,727.149633 232.498492,727.267661"/>
    <poly id="1293453336" type="landuse.grass" color="194,194,130" fill="1" layer="-3.00" shape="87.522378,706.889176 87.104027,699.267575 89.450023,699.307486 94.441656,702.826702 94.015891,707.476327 91.725387,707.181271 87.522378,706.889176"/>
    <poly id="1293453337" type="natural.scrub" color="140,196,107" fill="1" layer="-4.00" shape="91.725387,707.181271 87.522378,706.889176 87.305127,718.018977 88.556965,719.004749 89.842343,719.367094 91.725387,707.181271"/>
    <poly id="1293453338" type="natural.scrub" color="140,196,107" fill="1" layer="-4.00" shape="91.821706,722.486379 88.053028,721.969677 86.561526,721.212749 83.619127,723.110354 63.483522,731.265543 44.796980,740.756416 31.819921,745.099646 26.823898,747.064102 25.798543,748.981153 26.107402,750.392223 27.159898,750.671460 44.476286,748.384226 58.538700,744.187260 80.876414,736.024234 89.944326,735.329921 91.821706,722.486379"/>
    <poly id="1309422594" type="amenity.parking" color="184,184,179" fill="1" layer="-1.00" shape="160.897081,347.556347 164.393297,335.383408 124.868197,325.216008 121.632872,338.486942 160.897081,347.556347"/>
    <poly id="1316807896" type="amenity.parking" color="184,184,179" fill="1" layer="-1.00" shape="225.967113,7.169867 230.729712,8.410556 225.967113,7.169867"/>
    <poly id="1316807897" type="amenity.parking" color="184,184,179" fill="1" layer="-1.00" shape="215.243735,50.950387 220.626626,52.371769 231.234602,12.055054 225.851404,10.644796 215.243735,50.950387"/>
    <poly id="1316807898" type="amenity.parking" color="184,184,179" fill="0" layer="-1.00" shape="218.372170,31.613958 213.190516,30.353007"/>