<?xml version="1.0" encoding="UTF-8"?>

<!-- generated on 2025-01-26 11:39:32 by Eclipse SUMO netconvert Version 1.21.0
<netconvertConfiguration xmlns:xsi="http://www.w3.org/2001/XMLSchema-instance" xsi:noNamespaceSchemaLocation="http://sumo.dlr.de/xsd/netconvertConfiguration.xsd">

    <input>
        <type-files value="${SUMO_HOME}\data\typemap\osmNetconvert.typ.xml"/>
        <osm-files value="osm_bbox.osm.xml.gz"/>
    </input>

    <output>
        <output-file value="osm.net.xml.gz"/>
        <output.street-names value="true"/>
        <output.original-names value="true"/>
    </output>

    <projection>
        <proj.utm value="true"/>
    </projection>

    <processing>
        <geometry.remove value="true"/>
        <roundabouts.guess value="true"/>
    </processing>

    <tls_building>
        <tls.discard-simple value="true"/>
        <tls.join value="true"/>
        <tls.guess-signals value="true"/>
        <tls.default-type value="actuated"/>
    </tls_building>

    <ramp_guessing>
        <ramps.guess value="true"/>
    </ramp_guessing>

    <junctions>
        <junctions.join value="true"/>
        <junctions.corner-detail value="5"/>
    </junctions>

</netconvertConfiguration>
-->

<net version="1.20" junctionCornerDetail="5" limitTurnSpeed="5.50" xmlns:xsi="http://www.w3.org/2001/XMLSchema-instance" xsi:noNamespaceSchemaLocation="http://sumo.dlr.de/xsd/net_file.xsd">

    <location netOffset="-569493.37,-7032761.34" convBoundary="0.00,0.00,370.51,827.16" origBoundary="10.392123,63.416564,10.399419,63.424004" projParameter="+proj=utm +zone=32 +ellps=WGS84 +datum=WGS84 +units=m +no_defs"/>

    <type id="highway.cycleway" priority="1" numLanes="1" speed="5.56" allow="bicycle" oneway="0" width="2.00"/>
    <type id="highway.footway" priority="1" numLanes="1" speed="2.78" allow="pedestrian" oneway="1" width="2.00"/>
    <type id="highway.living_street" priority="2" numLanes="1" speed="2.78" disallow="tram rail_urban rail rail_electric rail_fast ship container cable_car subway aircraft wheelchair scooter drone" oneway="0"/>
    <type id="highway.path" priority="1" numLanes="1" speed="5.56" allow="pedestrian bicycle" oneway="0" width="2.00"/>
    <type id="highway.pedestrian" priority="1" numLanes="1" speed="2.78" allow="pedestrian" oneway="1" width="2.00"/>
    <type id="highway.primary" priority="12" numLanes="2" speed="27.78" disallow="tram rail_urban rail rail_electric rail_fast ship container cable_car subway aircraft wheelchair scooter drone" oneway="0"/>
    <type id="highway.residential" priority="3" numLanes="1" speed="13.89" disallow="tram rail_urban rail rail_electric rail_fast ship container cable_car subway aircraft wheelchair scooter drone" oneway="0"/>
    <type id="highway.secondary" priority="11" numLanes="1" speed="27.78" disallow="tram rail_urban rail rail_electric rail_fast ship container cable_car subway aircraft wheelchair scooter drone" oneway="0"/>
    <type id="highway.service" priority="1" numLanes="1" speed="5.56" allow="pedestrian delivery bicycle" oneway="0"/>
    <type id="highway.steps" priority="1" numLanes="1" speed="1.39" allow="pedestrian" oneway="1" width="2.00"/>
    <type id="highway.tertiary" priority="10" numLanes="1" speed="22.22" disallow="tram rail_urban rail rail_electric rail_fast ship container cable_car subway aircraft wheelchair scooter drone" oneway="0"/>
    <type id="highway.unclassified" priority="4" numLanes="1" speed="13.89" disallow="tram rail_urban rail rail_electric rail_fast ship container cable_car subway aircraft wheelchair scooter drone" oneway="0"/>

    <edge id=":10119825713_0" function="internal">
        <lane id=":10119825713_0_0" index="0" allow="pedestrian bicycle" speed="6.82" length="6.32" width="2.00" shape="217.94,455.07 216.93,455.13 215.76,455.72 214.40,456.84 212.87,458.48"/>
    </edge>
    <edge id=":10119825713_1" function="internal">
        <lane id=":10119825713_1_0" index="0" disallow="tram rail_urban rail rail_electric rail_fast ship container cable_car subway aircraft wheelchair scooter drone" speed="8.33" length="7.60" shape="217.94,455.07 210.51,453.42"/>
    </edge>
    <edge id=":10119825713_2" function="internal">
        <lane id=":10119825713_2_0" index="0" disallow="tram rail_urban rail rail_electric rail_fast ship container cable_car subway aircraft wheelchair scooter drone" speed="8.33" length="7.60" shape="211.21,450.29 218.63,451.94"/>
    </edge>
    <edge id=":10119825713_3" function="internal">
        <lane id=":10119825713_3_0" index="0" allow="pedestrian bicycle" speed="6.21" length="3.17" width="2.00" shape="211.21,450.29 214.02,451.41 214.10,451.52"/>
    </edge>
    <edge id=":10119825713_7" function="internal">
        <lane id=":10119825713_7_0" index="0" allow="pedestrian bicycle" speed="6.21" length="7.95" width="2.00" shape="214.10,451.52 215.24,453.15 214.86,455.50 212.87,458.48"/>
    </edge>
    <edge id=":10119825713_4" function="internal">
        <lane id=":10119825713_4_0" index="0" allow="pedestrian bicycle" speed="4.28" length="5.09" width="2.00" shape="211.40,457.13 212.28,455.79 212.43,454.72 211.84,453.93 210.51,453.42"/>
    </edge>
    <edge id=":10119825713_5" function="internal">
        <lane id=":10119825713_5_0" index="0" allow="pedestrian bicycle" speed="6.95" length="9.18" width="2.00" shape="211.40,457.13 213.66,454.66 215.62,452.97 217.28,452.07 218.63,451.94"/>
    </edge>
    <edge id=":10119825713_6" function="internal">
        <lane id=":10119825713_6_0" index="0" allow="pedestrian bicycle" speed="2.89" length="2.92" width="2.00" shape="211.40,457.13 212.27,456.91 212.81,457.07 213.01,457.59 212.87,458.48"/>
    </edge>
    <edge id=":10119832955_0" function="internal">
        <lane id=":10119832955_0_0" index="0" allow="pedestrian bicycle" speed="2.89" length="2.92" width="2.00" shape="360.37,95.77 361.26,95.67 361.77,95.89 361.91,96.43 361.66,97.30"/>
    </edge>
    <edge id=":1030148946_0" function="internal">
        <lane id=":1030148946_0_0" index="0" disallow="tram rail_urban rail rail_electric rail_fast ship container cable_car subway aircraft wheelchair scooter drone" speed="3.65" length="4.67" shape="344.02,694.55 345.41,694.94 346.04,695.57 345.91,696.46 345.01,697.59"/>
    </edge>
    <edge id=":1030148953_0" function="internal">
        <lane id=":1030148953_0_0" index="0" disallow="tram rail_urban rail rail_electric rail_fast ship container cable_car subway aircraft wheelchair scooter drone" speed="3.65" length="4.67" shape="355.75,657.64 357.15,658.00 357.79,658.62 357.68,659.51 356.81,660.66"/>
    </edge>
    <edge id=":105374_0" function="internal">
        <lane id=":105374_0_0" index="0" disallow="tram rail_urban rail rail_electric rail_fast ship container cable_car subway aircraft wheelchair scooter drone" speed="8.33" length="9.29" width="3.00" shape="75.34,100.77 66.90,96.87"/>
    </edge>
    <edge id=":105374_1" function="internal">
        <lane id=":105374_1_0" index="0" allow="pedestrian delivery bicycle" speed="6.90" length="2.96" shape="75.34,100.77 73.10,99.28 72.94,99.06"/>
    </edge>
    <edge id=":105374_7" function="internal">
        <lane id=":105374_7_0" index="0" allow="pedestrian delivery bicycle" speed="6.90" length="6.92" shape="72.94,99.06 71.82,97.42 71.50,95.19 72.15,92.59"/>
    </edge>
    <edge id=":105374_2" function="internal">
        <lane id=":105374_2_0" index="0" allow="pedestrian delivery bicycle" speed="5.18" length="5.10" width="3.00" shape="75.12,93.79 74.76,95.17 74.89,96.34 75.52,97.31 76.63,98.06"/>
    </edge>
    <edge id=":105374_3" function="internal">
        <lane id=":105374_3_0" index="0" allow="pedestrian delivery bicycle" speed="6.76" length="10.09" width="3.00" shape="75.12,93.79 73.73,96.13 71.90,97.42 69.63,97.67 66.90,96.87"/>
    </edge>
    <edge id=":105374_4" function="internal">
        <lane id=":105374_4_0" index="0" allow="pedestrian delivery bicycle" speed="3.65" length="4.67" shape="75.12,93.79 73.92,94.60 73.03,94.67 72.44,94.00 72.15,92.59"/>
    </edge>
    <edge id=":105374_5" function="internal">
        <lane id=":105374_5_0" index="0" allow="pedestrian delivery bicycle" speed="4.94" length="4.96" shape="68.12,94.14 69.45,94.52 70.57,94.39 71.47,93.75 72.15,92.59"/>
    </edge>
    <edge id=":105374_6" function="internal">
        <lane id=":105374_6_0" index="0" disallow="tram rail_urban rail rail_electric rail_fast ship container cable_car subway aircraft wheelchair scooter drone" speed="8.33" length="9.37" width="3.00" shape="68.12,94.14 76.63,98.06"/>
    </edge>
    <edge id=":10830810298_0" function="internal">
        <lane id=":10830810298_0_0" index="0" disallow="tram rail_urban rail rail_electric rail_fast ship container cable_car subway aircraft wheelchair scooter drone" speed="3.65" length="4.67" shape="0.06,653.72 -1.17,652.97 -1.60,652.18 -1.23,651.37 -0.06,650.53"/>
    </edge>
    <edge id=":10915635401_0" function="internal">
        <lane id=":10915635401_0_0" index="0" disallow="tram rail_urban rail rail_electric rail_fast ship container cable_car subway aircraft wheelchair scooter drone" speed="3.65" length="4.67" shape="98.87,771.43 97.90,772.50 97.05,772.78 96.32,772.26 95.71,770.95"/>
    </edge>
    <edge id=":11059199203_0" function="internal">
        <lane id=":11059199203_0_0" index="0" allow="bicycle" speed="2.89" length="2.92" width="2.00" shape="102.36,791.29 101.70,791.90 101.16,792.03 100.73,791.67 100.41,790.82"/>
    </edge>
    <edge id=":11059254111_0" function="internal">
        <lane id=":11059254111_0_0" index="0" allow="bicycle" speed="2.89" length="2.92" width="2.00" shape="86.46,789.53 85.94,790.27 85.44,790.50 84.94,790.24 84.46,789.48"/>
    </edge>
    <edge id=":1138471611_0" function="internal">
        <lane id=":1138471611_0_0" index="0" disallow="tram rail_urban rail rail_electric rail_fast ship container cable_car subway aircraft wheelchair scooter drone" speed="8.33" length="6.84" shape="50.42,509.86 45.36,514.46"/>
    </edge>
    <edge id=":1138471611_1" function="internal">
        <lane id=":1138471611_1_0" index="0" disallow="tram rail_urban rail rail_electric rail_fast ship container cable_car subway aircraft wheelchair scooter drone" speed="8.33" length="6.78" shape="43.23,512.07 48.24,507.51"/>
    </edge>
    <edge id=":1138471618_0" function="internal">
        <lane id=":1138471618_0_0" index="0" disallow="tram rail_urban rail rail_electric rail_fast ship container cable_car subway aircraft wheelchair scooter drone" speed="8.33" length="5.39" shape="76.56,463.97 74.97,469.11"/>
    </edge>
    <edge id=":1138471618_1" function="internal">
        <lane id=":1138471618_1_0" index="0" disallow="tram rail_urban rail rail_electric rail_fast ship container cable_car subway aircraft wheelchair scooter drone" speed="8.33" length="5.21" shape="71.94,468.08 73.48,463.11"/>
    </edge>
    <edge id=":1138471630_0" function="internal">
        <lane id=":1138471630_0_0" index="0" allow="pedestrian bicycle" speed="5.56" length="5.09" width="2.00" shape="70.90,515.78 70.02,514.55 69.40,513.73 68.74,512.93 67.76,511.78"/>
    </edge>
    <edge id=":1138471630_1" function="internal">
        <lane id=":1138471630_1_0" index="0" allow="pedestrian bicycle" speed="2.89" length="2.37" width="2.00" shape="70.90,515.78 70.87,514.88 71.13,514.39 71.69,514.30 72.02,514.42"/>
    </edge>
    <edge id=":1138471630_4" function="internal">
        <lane id=":1138471630_4_0" index="0" allow="pedestrian bicycle" speed="2.89" length="0.55" width="2.00" shape="72.02,514.42 72.53,514.62"/>
    </edge>
    <edge id=":1138471630_2" function="internal">
        <lane id=":1138471630_2_0" index="0" allow="pedestrian bicycle" speed="5.56" length="5.27" width="2.00" shape="69.27,510.47 70.29,511.66 70.97,512.49 71.62,513.35 72.53,514.62"/>
    </edge>
    <edge id=":1138471630_3" function="internal">
        <lane id=":1138471630_3_0" index="0" allow="pedestrian bicycle" speed="2.89" length="2.41" width="2.00" shape="69.27,510.47 69.39,511.37 69.17,511.88 68.63,512.02 68.25,511.92"/>
    </edge>
    <edge id=":1138471630_5" function="internal">
        <lane id=":1138471630_5_0" index="0" allow="pedestrian bicycle" speed="2.89" length="0.51" width="2.00" shape="68.25,511.92 67.76,511.78"/>
    </edge>
    <edge id=":1138471634_0" function="internal">
        <lane id=":1138471634_0_0" index="0" allow="pedestrian bicycle" speed="10.77" length="6.82" width="2.00" shape="65.55,509.22 64.39,507.54 63.68,506.21 62.78,505.18 61.04,504.42"/>
    </edge>
    <edge id=":1138471634_1" function="internal">
        <lane id=":1138471634_1_0" index="0" allow="pedestrian bicycle" speed="4.26" length="4.44" width="2.00" shape="66.69,504.20 65.83,504.64 65.58,505.37 65.93,506.39 66.88,507.70"/>
    </edge>
    <edge id=":1138471634_2" function="internal">
        <lane id=":1138471634_2_0" index="0" disallow="tram rail_urban rail rail_electric rail_fast ship container cable_car subway aircraft wheelchair scooter drone" speed="11.40" length="5.77" shape="66.69,504.20 65.03,504.63 63.86,504.85 62.69,504.80 61.04,504.42"/>
    </edge>
    <edge id=":1147034662_0" function="internal">
        <lane id=":1147034662_0_0" index="0" allow="pedestrian delivery bicycle" speed="4.27" length="1.21" shape="24.46,491.87 24.12,491.77 23.90,491.66 23.72,491.48 23.52,491.18"/>
    </edge>
    <edge id=":11901456753_0" function="internal">
        <lane id=":11901456753_0_0" index="0" disallow="tram rail_urban rail rail_electric rail_fast ship container cable_car subway aircraft wheelchair scooter drone" speed="8.33" length="42.93" width="3.00" shape="86.44,171.84 76.47,213.60"/>
    </edge>
    <edge id=":11901456753_1" function="internal">
        <lane id=":11901456753_1_0" index="0" disallow="tram rail_urban rail rail_electric rail_fast ship container cable_car subway aircraft wheelchair scooter drone" speed="8.33" length="42.94" width="3.00" shape="73.55,212.90 83.52,171.14"/>
    </edge>
    <edge id=":11901456760_0" function="internal">
        <lane id=":11901456760_0_0" index="0" disallow="tram rail_urban rail rail_electric rail_fast ship container cable_car subway aircraft wheelchair scooter drone" speed="8.33" length="5.00" width="3.00" shape="95.50,133.86 94.34,138.72"/>
    </edge>
    <edge id=":11901456760_1" function="internal">
        <lane id=":11901456760_1_0" index="0" disallow="tram rail_urban rail rail_electric rail_fast ship container cable_car subway aircraft wheelchair scooter drone" speed="8.33" length="5.00" width="3.00" shape="91.42,138.02 92.58,133.16"/>
    </edge>
    <edge id=":11901456766_0" function="internal">
        <lane id=":11901456766_0_0" index="0" disallow="tram rail_urban rail rail_electric rail_fast ship container cable_car subway aircraft wheelchair scooter drone" speed="8.33" length="5.00" width="3.00" shape="92.61,145.95 91.45,150.82"/>
    </edge>
    <edge id=":11901456766_1" function="internal">
        <lane id=":11901456766_1_0" index="0" disallow="tram rail_urban rail rail_electric rail_fast ship container cable_car subway aircraft wheelchair scooter drone" speed="8.33" length="5.00" width="3.00" shape="88.53,150.12 89.69,145.26"/>
    </edge>
    <edge id=":11901478578_0" function="internal">
        <lane id=":11901478578_0_0" index="0" allow="pedestrian delivery bicycle" speed="5.56" length="4.65" shape="41.14,88.41 39.13,92.60"/>
    </edge>
    <edge id=":11901478578_1" function="internal">
        <lane id=":11901478578_1_0" index="0" allow="pedestrian delivery bicycle" speed="3.65" length="4.67" shape="41.14,88.41 39.89,89.13 39.00,89.14 38.45,88.43 38.26,87.00"/>
    </edge>
    <edge id=":11901478578_2" function="internal">
        <lane id=":11901478578_2_0" index="0" allow="pedestrian delivery bicycle" speed="5.56" length="4.70" shape="36.23,91.24 38.26,87.00"/>
    </edge>
    <edge id=":11901478578_3" function="internal">
        <lane id=":11901478578_3_0" index="0" allow="pedestrian delivery bicycle" speed="3.65" length="4.67" shape="36.23,91.24 37.47,90.49 38.36,90.47 38.91,91.17 39.13,92.60"/>
    </edge>
    <edge id=":11901478586_0" function="internal">
        <lane id=":11901478586_0_0" index="0" allow="pedestrian delivery bicycle" speed="3.65" length="4.67" shape="24.94,218.23 23.61,217.68 23.06,216.97 23.30,216.11 24.32,215.09"/>
    </edge>
    <edge id=":11901478588_0" function="internal">
        <lane id=":11901478588_0_0" index="0" disallow="tram rail_urban rail rail_electric rail_fast ship container cable_car subway aircraft wheelchair scooter drone" speed="8.33" length="9.42" width="3.00" shape="75.96,215.75 73.77,224.91"/>
    </edge>
    <edge id=":11901478588_1" function="internal">
        <lane id=":11901478588_1_0" index="0" allow="pedestrian delivery bicycle" speed="6.95" length="3.00" shape="75.96,215.75 74.97,218.24 74.75,218.47"/>
    </edge>
    <edge id=":11901478588_7" function="internal">
        <lane id=":11901478588_7_0" index="0" allow="pedestrian delivery bicycle" speed="6.95" length="6.96" shape="74.75,218.47 73.41,219.87 71.26,220.65 68.53,220.58"/>
    </edge>
    <edge id=":11901478588_2" function="internal">
        <lane id=":11901478588_2_0" index="0" allow="pedestrian delivery bicycle" speed="5.24" length="5.21" width="3.00" shape="69.05,217.42 70.54,217.48 71.69,217.10 72.53,216.29 73.04,215.05"/>
    </edge>
    <edge id=":11901478588_3" function="internal">
        <lane id=":11901478588_3_0" index="0" allow="pedestrian delivery bicycle" speed="6.73" length="10.26" width="3.00" shape="69.05,217.42 71.69,218.28 73.36,219.81 74.06,222.02 73.77,224.91"/>
    </edge>
    <edge id=":11901478588_4" function="internal">
        <lane id=":11901478588_4_0" index="0" allow="pedestrian delivery bicycle" speed="3.65" length="4.67" shape="69.05,217.42 70.10,218.41 70.37,219.26 69.84,219.99 68.53,220.58"/>
    </edge>
    <edge id=":11901478588_5" function="internal">
        <lane id=":11901478588_5_0" index="0" allow="pedestrian delivery bicycle" speed="4.91" length="5.00" shape="70.86,224.21 70.99,222.81 70.65,221.74 69.83,221.00 68.53,220.58"/>
    </edge>
    <edge id=":11901478588_6" function="internal">
        <lane id=":11901478588_6_0" index="0" disallow="tram rail_urban rail rail_electric rail_fast ship container cable_car subway aircraft wheelchair scooter drone" speed="8.33" length="9.42" width="3.00" shape="70.86,224.21 73.04,215.05"/>
    </edge>
    <edge id=":12087854698_0" function="internal">
        <lane id=":12087854698_0_0" index="0" allow="pedestrian delivery bicycle" speed="3.65" length="4.67" shape="169.51,181.44 170.57,180.47 171.44,180.27 172.12,180.85 172.62,182.20"/>
    </edge>
    <edge id=":12124874529_0" function="internal">
        <lane id=":12124874529_0_0" index="0" allow="pedestrian delivery bicycle" speed="3.65" length="4.67" shape="163.03,336.46 164.15,337.37 164.48,338.20 164.01,338.96 162.74,339.65"/>
    </edge>
    <edge id=":12124874531_0" function="internal">
        <lane id=":12124874531_0_0" index="0" allow="pedestrian delivery bicycle" speed="5.56" length="12.47" shape="127.01,343.75 114.92,340.71"/>
    </edge>
    <edge id=":12124874531_1" function="internal">
        <lane id=":12124874531_1_0" index="0" allow="pedestrian delivery bicycle" speed="5.56" length="16.85" shape="127.01,343.75 121.90,341.86 119.99,339.57 121.27,336.88 125.75,333.79"/>
    </edge>
    <edge id=":12124874531_2" function="internal">
        <lane id=":12124874531_2_0" index="0" allow="pedestrian delivery bicycle" speed="3.65" length="4.67" shape="127.01,343.75 126.04,342.68 125.85,341.80 126.43,341.13 127.79,340.64"/>
    </edge>
    <edge id=":12124874531_3" function="internal">
        <lane id=":12124874531_3_0" index="0" allow="pedestrian delivery bicycle" speed="4.69" length="6.82" shape="127.26,336.62 125.45,337.86 124.94,338.95 125.72,339.88 127.79,340.64"/>
    </edge>
    <edge id=":12124874531_4" function="internal">
        <lane id=":12124874531_4_0" index="0" allow="pedestrian delivery bicycle" speed="5.56" length="13.38" shape="127.26,336.62 124.16,338.43 121.26,340.01 118.28,340.92 114.92,340.71"/>
    </edge>
    <edge id=":12124874531_5" function="internal">
        <lane id=":12124874531_5_0" index="0" allow="pedestrian delivery bicycle" speed="3.65" length="4.67" shape="127.26,336.62 125.82,336.48 125.09,335.96 125.07,335.06 125.75,333.79"/>
    </edge>
    <edge id=":12124874531_6" function="internal">
        <lane id=":12124874531_6_0" index="0" allow="pedestrian delivery bicycle" speed="5.56" length="11.20" shape="115.70,337.61 118.70,337.86 120.89,337.05 123.01,335.56 125.75,333.79"/>
    </edge>
    <edge id=":12124874531_7" function="internal">
        <lane id=":12124874531_7_0" index="0" allow="pedestrian delivery bicycle" speed="5.56" length="12.47" shape="115.70,337.61 127.79,340.64"/>
    </edge>
    <edge id=":12124874531_8" function="internal">
        <lane id=":12124874531_8_0" index="0" allow="pedestrian delivery bicycle" speed="3.65" length="4.67" shape="115.70,337.61 116.67,338.68 116.86,339.55 116.28,340.23 114.92,340.71"/>
    </edge>
    <edge id=":12147647278_0" function="internal">
        <lane id=":12147647278_0_0" index="0" allow="pedestrian delivery bicycle" speed="3.65" length="4.67" shape="211.66,16.73 212.73,15.77 213.60,15.58 214.28,16.16 214.76,17.52"/>
    </edge>
    <edge id=":12187104284_0" function="internal">
        <lane id=":12187104284_0_0" index="0" allow="pedestrian delivery bicycle" speed="3.65" length="4.67" shape="271.50,155.90 270.41,156.85 269.53,157.02 268.87,156.43 268.41,155.06"/>
    </edge>
    <edge id=":12187104294_0" function="internal">
        <lane id=":12187104294_0_0" index="0" allow="pedestrian delivery bicycle" speed="3.65" length="4.67" shape="205.61,195.57 206.66,194.59 207.53,194.38 208.22,194.96 208.72,196.31"/>
    </edge>
    <edge id=":12187104295_0" function="internal">
        <lane id=":12187104295_0_0" index="0" allow="pedestrian delivery bicycle" speed="5.16" length="5.20" shape="186.19,228.60 184.72,228.42 183.56,228.71 182.69,229.48 182.13,230.72"/>
    </edge>
    <edge id=":12187104295_1" function="internal">
        <lane id=":12187104295_1_0" index="0" allow="pedestrian delivery bicycle" speed="5.56" length="10.47" shape="186.19,228.60 183.52,227.49 181.90,225.79 181.34,223.52 181.83,220.67"/>
    </edge>
    <edge id=":12187104295_2" function="internal">
        <lane id=":12187104295_2_0" index="0" allow="pedestrian delivery bicycle" speed="3.65" length="4.67" shape="186.19,228.60 185.23,227.53 185.04,226.65 185.63,225.98 186.99,225.50"/>
    </edge>
    <edge id=":12187104295_3" function="internal">
        <lane id=":12187104295_3_0" index="0" allow="pedestrian delivery bicycle" speed="4.98" length="5.07" shape="184.88,221.66 184.64,223.04 184.91,224.14 185.69,224.96 186.99,225.50"/>
    </edge>
    <edge id=":12187104295_4" function="internal">
        <lane id=":12187104295_4_0" index="0" allow="pedestrian delivery bicycle" speed="5.56" length="9.47" shape="184.88,221.66 182.13,230.72"/>
    </edge>
    <edge id=":12187104295_5" function="internal">
        <lane id=":12187104295_5_0" index="0" allow="pedestrian delivery bicycle" speed="3.65" length="4.67" shape="184.88,221.66 183.75,222.55 182.86,222.69 182.22,222.06 181.83,220.67"/>
    </edge>
    <edge id=":12187104295_6" function="internal">
        <lane id=":12187104295_6_0" index="0" allow="pedestrian delivery bicycle" speed="5.56" length="9.60" shape="179.05,229.85 181.83,220.67"/>
    </edge>
    <edge id=":12187104295_7" function="internal">
        <lane id=":12187104295_7_0" index="0" allow="pedestrian delivery bicycle" speed="5.56" length="10.27" shape="179.05,229.85 180.17,227.34 181.87,225.78 184.14,225.17 186.99,225.50"/>
    </edge>
    <edge id=":12187104295_8" function="internal">
        <lane id=":12187104295_8_0" index="0" allow="pedestrian delivery bicycle" speed="3.65" length="4.67" shape="179.05,229.85 180.14,228.91 181.02,228.74 181.68,229.35 182.13,230.72"/>
    </edge>
    <edge id=":12187104296_0" function="internal">
        <lane id=":12187104296_0_0" index="0" allow="pedestrian delivery bicycle" speed="3.65" length="4.67" shape="189.67,196.55 190.80,195.65 191.69,195.52 192.32,196.15 192.71,197.53"/>
    </edge>
    <edge id=":12187104297_0" function="internal">
        <lane id=":12187104297_0_0" index="0" allow="pedestrian delivery bicycle" speed="5.56" length="4.07" shape="170.42,272.30 169.31,276.21"/>
    </edge>
    <edge id=":12187104297_1" function="internal">
        <lane id=":12187104297_1_0" index="0" allow="pedestrian delivery bicycle" speed="3.65" length="1.44" shape="170.42,272.30 169.32,273.23"/>
    </edge>
    <edge id=":12187104297_4" function="internal">
        <lane id=":12187104297_4_0" index="0" allow="pedestrian delivery bicycle" speed="3.65" length="3.23" shape="169.32,273.23 168.44,273.40 167.78,272.80 167.34,271.43"/>
    </edge>
    <edge id=":12187104297_2" function="internal">
        <lane id=":12187104297_2_0" index="0" allow="pedestrian delivery bicycle" speed="5.56" length="4.06" shape="166.23,275.34 167.34,271.43"/>
    </edge>
    <edge id=":12187104297_3" function="internal">
        <lane id=":12187104297_3_0" index="0" allow="pedestrian delivery bicycle" speed="3.65" length="1.44" shape="166.23,275.34 167.33,274.40"/>
    </edge>
    <edge id=":12187104297_5" function="internal">
        <lane id=":12187104297_5_0" index="0" allow="pedestrian delivery bicycle" speed="3.65" length="3.23" shape="167.33,274.40 168.21,274.24 168.87,274.84 169.31,276.21"/>
    </edge>
    <edge id=":1725040315_0" function="internal">
        <lane id=":1725040315_0_0" index="0" disallow="tram rail_urban rail rail_electric rail_fast ship container cable_car subway aircraft wheelchair scooter drone" speed="3.65" length="4.67" shape="344.58,749.20 345.47,750.33 345.60,751.21 344.97,751.85 343.58,752.24"/>
    </edge>
    <edge id=":196128976_0" function="internal">
        <lane id=":196128976_0_0" index="0" allow="pedestrian delivery bicycle" speed="3.65" length="4.67" shape="63.77,726.90 63.06,728.15 62.29,728.61 61.46,728.27 60.58,727.13"/>
    </edge>
    <edge id=":196128981_0" function="internal">
        <lane id=":196128981_0_0" index="0" allow="pedestrian delivery bicycle" speed="6.08" length="7.82" shape="18.03,697.61 18.21,695.47 19.02,693.91 20.49,692.93 22.59,692.52"/>
    </edge>
    <edge id=":196128981_1" function="internal">
        <lane id=":196128981_1_0" index="0" allow="pedestrian delivery bicycle" speed="3.90" length="2.61" shape="22.75,695.72 22.04,695.86 21.56,696.18 21.28,696.70 21.23,697.42"/>
    </edge>
    <edge id=":196128981_2" function="internal">
        <lane id=":196128981_2_0" index="0" disallow="tram rail_urban rail rail_electric rail_fast ship container cable_car subway aircraft wheelchair scooter drone" speed="3.65" length="4.67" shape="22.75,695.72 21.51,694.98 21.07,694.20 21.43,693.38 22.59,692.52"/>
    </edge>
    <edge id=":1962340634_0" function="internal">
        <lane id=":1962340634_0_0" index="0" disallow="tram rail_urban rail rail_electric rail_fast ship container cable_car subway aircraft wheelchair scooter drone" speed="8.33" length="4.75" shape="111.97,260.02 116.46,261.58"/>
    </edge>
    <edge id=":1962340674_0" function="internal">
        <lane id=":1962340674_0_0" index="0" allow="pedestrian bicycle" speed="2.89" length="2.92" width="2.00" shape="52.80,351.23 53.48,350.64 54.03,350.53 54.44,350.90 54.73,351.76"/>
    </edge>
    <edge id=":198538821_0" function="internal">
        <lane id=":198538821_0_0" index="0" disallow="tram rail_urban rail rail_electric rail_fast ship container cable_car subway aircraft wheelchair scooter drone" speed="6.38" length="8.50" shape="331.42,43.45 329.22,43.22 327.43,43.80 326.04,45.20 325.07,47.43"/>
    </edge>
    <edge id=":198538821_1" function="internal">
        <lane id=":198538821_1_0" index="0" disallow="tram rail_urban rail rail_electric rail_fast ship container cable_car subway aircraft wheelchair scooter drone" speed="3.65" length="4.67" shape="331.42,43.45 330.47,42.37 330.29,41.49 330.89,40.82 332.25,40.36"/>
    </edge>
    <edge id=":2154895067_0" function="internal">
        <lane id=":2154895067_0_0" index="0" allow="pedestrian bicycle" speed="2.89" length="2.92" width="2.00" shape="356.11,564.58 356.48,565.40 356.43,565.95 355.96,566.25 355.05,566.27"/>
    </edge>
    <edge id=":2175664380_0" function="internal">
        <lane id=":2175664380_0_0" index="0" allow="pedestrian delivery bicycle" speed="3.65" length="4.67" shape="13.27,306.18 14.36,305.23 15.23,305.05 15.90,305.65 16.35,307.02"/>
    </edge>
    <edge id=":2175664386_0" function="internal">
        <lane id=":2175664386_0_0" index="0" allow="pedestrian delivery bicycle" speed="3.65" length="4.67" shape="5.21,336.20 3.77,336.13 3.01,335.64 2.95,334.75 3.57,333.45"/>
    </edge>
    <edge id=":2193794454_0" function="internal">
        <lane id=":2193794454_0_0" index="0" allow="pedestrian delivery bicycle" speed="4.89" length="4.58" shape="45.14,87.16 43.85,86.76 42.77,86.81 41.89,87.30 41.22,88.23"/>
    </edge>
    <edge id=":2193794454_1" function="internal">
        <lane id=":2193794454_1_0" index="0" disallow="tram rail_urban rail rail_electric rail_fast ship container cable_car subway aircraft wheelchair scooter drone" speed="3.53" length="4.38" width="3.00" shape="45.14,87.16 44.42,86.02 44.38,85.18 45.03,84.65 46.36,84.42"/>
    </edge>
    <edge id=":2193794454_2" function="internal">
        <lane id=":2193794454_2_0" index="0" allow="pedestrian delivery bicycle" speed="6.72" length="9.45" width="3.00" shape="38.35,86.82 39.75,84.83 41.55,83.77 43.76,83.63 46.36,84.42"/>
    </edge>
    <edge id=":2193794458_0" function="internal">