<?xml version="1.0" encoding="UTF-8"?>

<!-- generated on 2025-01-23 11:14:33.494605 by osmWebWizard.py v1_21_0+0000-d7b3b481c43
<configuration>
    <net-file value="C:\Users\pc\Sumo\2025-01-23-11-14-25\osm.net.xml.gz"/>
    <output-trip-file value="C:\Users\pc\Sumo\2025-01-23-11-14-25\osm.passenger.trips.xml"/>
    <route-file value="C:\Users\pc\Sumo\2025-01-23-11-14-25\osm.passenger.rou.xml"/>
    <prefix value="veh"/>
    <trip-attributes value="departLane=&quot;best&quot;"/>
    <fringe-start-attributes value="departSpeed=&quot;max&quot;"/>
    <vehicle-class value="passenger"/>
    <lanes value="True"/>
    <fringe-factor value="50"/>
    <allow-fringe.min-length value="1000.0"/>
    <via-edge-types value="highway.motorway,highway.motorway_link,highway.trunk_link,highway.primary_link,highway.secondary_link,highway.tertiary_link"/>
    <min-distance value="300.0"/>
    <min-distance.fringe value="10.0"/>
    <remove-loops value="True"/>
    <validate value="True"/>
    <end value="20000.0"/>
    <insertion-density value="120.0"/>
</configuration>
-->

<!-- generated on 2025-01-23 11:14:32 by Eclipse SUMO duarouter Version 1.21.0
<duarouterConfiguration xmlns:xsi="http://www.w3.org/2001/XMLSchema-instance" xsi:noNamespaceSchemaLocation="http://sumo.dlr.de/xsd/duarouterConfiguration.xsd">

    <input>
        <net-file value="C:\Users\pc\Sumo\2025-01-23-11-14-25\osm.net.xml.gz"/>
        <route-files value="C:\Users\pc\Sumo\2025-01-23-11-14-25\osm.passenger.trips.xml"/>
    </input>

    <output>
        <output-file value="C:\Users\pc\Sumo\2025-01-23-11-14-25\osm.passenger.trips.xml.tmp"/>
        <alternatives-output value="NUL"/>
        <write-trips value="true"/>
    </output>

    <processing>
        <remove-loops value="true"/>
    </processing>

    <time>
        <begin value="0.0"/>
        <end value="20000.0"/>
    </time>

    <report>
        <no-warnings value="true"/>
        <ignore-errors value="true"/>
        <no-step-log value="true"/>
    </report>

</duarouterConfiguration>
-->

<routes xmlns:xsi="http://www.w3.org/2001/XMLSchema-instance" xsi:noNamespaceSchemaLocation="http://sumo.dlr.de/xsd/routes_file.xsd">
    <vType id="veh_passenger" vClass="passenger"/>
    <trip id="veh1" type="veh_passenger" depart="2.36" departLane="best" departSpeed="max" from="190443810" to="4976151#4"/>
    <trip id="veh5" type="veh_passenger" depart="11.82" departLane="best" departSpeed="max" from="-1035862607" to="-29505715#0"/>
    <trip id="veh9" type="veh_passenger" depart="21.27" departLane="best" departSpeed="max" from="190443810" to="5049351#4"/>
    <trip id="veh10" type="veh_passenger" depart="23.64" departLane="best" from="5122255#1" to="178292878#0"/>
    <trip id="veh11" type="veh_passenger" depart="26.00" departLane="best" departSpeed="max" from="-19144698#1" to="-2331704"/>
    <trip id="veh13" type="veh_passenger" depart="30.73" departLane="best" departSpeed="max" from="190443810" to="5106516#1"/>
    <trip id="veh14" type="veh_passenger" depart="33.09" departLane="best" departSpeed="max" from="-80698388#3" to="934999881#1"/>
    <trip id="veh19" type="veh_passenger" depart="44.91" departLane="best" departSpeed="max" from="-19144698#1" to="5049351#2"/>
    <trip id="veh21" type="veh_passenger" depart="49.64" departLane="best" departSpeed="max" from="1174714318" to="178292878#5"/>
    <trip id="veh22" type="veh_passenger" depart="52.00" departLane="best" departSpeed="max" from="-5049351#5" to="310980423#0"/>
    <trip id="veh23" type="veh_passenger" depart="54.36" departLane="best" departSpeed="max" from="1174714318" to="445119454#1"/>
    <trip id="veh24" type="veh_passenger" depart="56.73" departLane="best" departSpeed="max" from="-24603064#5" to="5106516#1"/>
    <trip id="veh25" type="veh_passenger" depart="59.09" departLane="best" departSpeed="max" from="-934999881#1" to="4990967#1"/>
    <trip id="veh26" type="veh_passenger" depart="61.45" departLane="best" departSpeed="max" from="24603064#0" to="51972127#1"/>
    <trip id="veh29" type="veh_passenger" depart="68.54" departLane="best" departSpeed="max" from="1174714318" to="19144698#1"/>
    <trip id="veh33" type="veh_passenger" depart="78.00" departLane="best" departSpeed="max" from="1174714318" to="8010412#1"/>
    <trip id="veh37" type="veh_passenger" depart="87.45" departLane="best" departSpeed="max" from="-1035862607" to="5049351#4"/>
    <trip id="veh40" type="veh_passenger" depart="94.54" departLane="best" from="-706072616#2" to="80698388#3"/>
    <trip id="veh43" type="veh_passenger" depart="101.63" departLane="best" departSpeed="max" from="29505715#0" to="8010412#1"/>
    <trip id="veh48" type="veh_passenger" depart="113.45" departLane="best" departSpeed="max" from="-4973750#1" to="-2331704"/>
    <trip id="veh50" type="veh_passenger" depart="118.18" departLane="best" departSpeed="max" from="-934999881#1" to="5106516#1"/>
    <trip id="veh54" type="veh_passenger" depart="127.63" departLane="best" departSpeed="max" from="-19144698#1" to="4973750#1"/>
    <trip id="veh56" type="veh_passenger" depart="132.36" departLane="best" departSpeed="max" from="24603064#0" to="-2331704"/>
    <trip id="veh58" type="veh_passenger" depart="137.09" departLane="best" departSpeed="max" from="-8010412#1" to="51972127#1"/>
    <trip id="veh59" type="veh_passenger" depart="139.45" departLane="best" departSpeed="max" from="190443810" to="-29505715#0"/>
    <trip id="veh60" type="veh_passenger" depart="141.81" departLane="best" departSpeed="max" from="-51972127#1" to="-24603064#3"/>
    <trip id="veh61" type="veh_passenger" depart="144.18" departLane="best" departSpeed="max" from="190443810" to="4976151#4"/>
    <trip id="veh62" type="veh_passenger" depart="146.54" departLane="best" departSpeed="max" from="-5106516#1" to="178292878#5"/>
    <trip id="veh65" type="veh_passenger" depart="153.63" departLane="best" departSpeed="max" from="-51972127#1" to="99185877#1"/>
    <trip id="veh67" type="veh_passenger" depart="158.36" departLane="best" departSpeed="max" from="-51972127#1" to="718188322#1"/>
    <trip id="veh68" type="veh_passenger" depart="160.72" departLane="best" departSpeed="max" from="-934999881#1" to="-2331704"/>
    <trip id="veh69" type="veh_passenger" depart="163.09" departLane="best" from="-99185877#1" to="718188322#1"/>
    <trip id="veh72" type="veh_passenger" depart="170.18" departLane="best" departSpeed="max" from="-5106516#1" to="-2331704"/>
    <trip id="veh73" type="veh_passenger" depart="172.54" departLane="best" departSpeed="max" from="-5049351#5" to="934999881#1"/>
    <trip id="veh75" type="veh_passenger" depart="177.27" departLane="best" from="5122255#1" to="934999881#1"/>
    <trip id="veh76" type="veh_passenger" depart="179.63" departLane="best" departSpeed="max" from="-934999881#1" to="5049351#4"/>
    <trip id="veh78" type="veh_passenger" depart="184.36" departLane="best" departSpeed="max" from="-934999881#1" to="5106516#1"/>
    <trip id="veh81" type="veh_passenger" depart="191.45" departLane="best" departSpeed="max" from="-24603064#5" to="80698388#3"/>
    <trip id="veh82" type="veh_passenger" depart="193.81" departLane="best" departSpeed="max" from="1174714318" to="4976151#4"/>
    <trip id="veh84" type="veh_passenger" depart="198.54" departLane="best" departSpeed="max" from="1174714318" to="4973750#1"/>
    <trip id="veh86" type="veh_passenger" depart="203.27" departLane="best" from="311837943#1" to="19144698#1"/>
    <trip id="veh87" type="veh_passenger" depart="205.63" departLane="best" departSpeed="max" from="1330180555#0" to="1035862607"/>
    <trip id="veh89" type="veh_passenger" depart="210.36" departLane="best" departSpeed="max" from="-19144698#1" to="-311837943#0"/>
    <trip id="veh93" type="veh_passenger" depart="219.81" departLane="best" departSpeed="max" from="1174714318" to="934999881#1"/>
    <trip id="veh94" type="veh_passenger" depart="222.18" departLane="best" departSpeed="max" from="1174714318" to="-1330180555#0"/>
    <trip id="veh96" type="veh_passenger" depart="226.90" departLane="best" departSpeed="max" from="1174714318" to="80698388#3"/>
    <trip id="veh97" type="veh_passenger" depart="229.27" departLane="best" departSpeed="max" from="159518063#0" to="-29505715#0"/>
    <trip id="veh98" type="veh_passenger" depart="231.63" departLane="best" departSpeed="max" from="24603064#0" to="-2331704"/>
    <trip id="veh99" type="veh_passenger" depart="233.99" departLane="best" departSpeed="max" from="-51972127#1" to="5049351#2"/>
    <trip id="veh100" type="veh_passenger" depart="236.36" departLane="best" departSpeed="max" from="-1035862607" to="51972127#1"/>
    <trip id="veh101" type="veh_passenger" depart="238.72" departLane="best" departSpeed="max" from="-19144698#1" to="8010412#1"/>
    <trip id="veh104" type="veh_passenger" depart="245.81" departLane="best" departSpeed="max" from="-4973750#1" to="8010412#1"/>
    <trip id="veh105" type="veh_passenger" depart="248.18" departLane="best" departSpeed="max" from="29505715#0" to="-310980423#0"/>
    <trip id="veh107" type="veh_passenger" depart="252.90" departLane="best" departSpeed="max" from="190443810" to="8010412#1"/>
    <trip id="veh110" type="veh_passenger" depart="259.99" departLane="best" departSpeed="max" from="-1035862607" to="5106516#1"/>
    <trip id="veh112" type="veh_passenger" depart="264.72" departLane="best" departSpeed="max" from="190443810" to="718188323"/>
    <trip id="veh114" type="veh_passenger" depart="269.45" departLane="best" departSpeed="max" from="190443810" to="-2331704"/>
    <trip id="veh116" type="veh_passenger" depart="274.17" departLane="best" departSpeed="max" from="190443810" to="-4981404#1"/>
    <trip id="veh117" type="veh_passenger" depart="276.54" departLane="best" departSpeed="max" from="-1035862607" to="-29505715#0"/>
    <trip id="veh118" type="veh_passenger" depart="278.90" departLane="best" from="-4973846#2" to="718188323"/>
    <trip id="veh119" type="veh_passenger" depart="281.27" departLane="best" departSpeed="max" from="1174714318" to="19144698#1"/>
    <trip id="veh121" type="veh_passenger" depart="285.99" departLane="best" from="4976151#1" to="-24603064#0"/>
    <trip id="veh124" type="veh_passenger" depart="293.08" departLane="best" departSpeed="max" from="190443810" to="1059552693#2"/>
    <trip id="veh128" type="veh_passenger" depart="302.54" departLane="best" departSpeed="max" from="-80698388#3" to="5049351#4"/>
    <trip id="veh129" type="veh_passenger" depart="304.90" departLane="best" departSpeed="max" from="190443810" to="4976151#4"/>
    <trip id="veh130" type="veh_passenger" depart="307.26" departLane="best" departSpeed="max" from="1174714318" to="1282892424#0"/>
    <trip id="veh131" type="veh_passenger" depart="309.63" departLane="best" departSpeed="max" from="-4973750#1" to="718188322#1"/>
    <trip id="veh132" type="veh_passenger" depart="311.99" departLane="best" departSpeed="max" from="159518063#0" to="1035862607"/>
    <trip id="veh134" type="veh_passenger" depart="316.72" departLane="best" departSpeed="max" from="-5106516#1" to="1035862607"/>
    <trip id="veh135" type="veh_passenger" depart="319.08" departLane="best" departSpeed="max" from="29505715#0" to="4973750#1"/>
    <trip id="veh137" type="veh_passenger" depart="323.81" departLane="best" departSpeed="max" from="1174714318" to="-224379941#1"/>
    <trip id="veh140" type="veh_passenger" depart="330.90" departLane="best" departSpeed="max" from="1174714318" to="176370864#0"/>
    <trip id="veh144" type="veh_passenger" depart="340.35" departLane="best" departSpeed="max" from="24603064#0" to="-2331704"/>
    <trip id="veh147" type="veh_passenger" depart="347.45" departLane="best" departSpeed="max" from="1174714318" to="1174525661"/>
    <trip id="veh148" type="veh_passenger" depart="349.81" departLane="best" departSpeed="max" from="190443810" to="51972127#1"/>
    <trip id="veh149" type="veh_passenger" depart="352.17" departLane="best" departSpeed="max" from="-24603064#5" to="80698388#3"/>
    <trip id="veh150" type="veh_passenger" depart="354.54" departLane="best" departSpeed="max" from="-80698388#3" to="-2331704"/>
    <trip id="veh152" type="veh_passenger" depart="359.26" departLane="best" departSpeed="max" from="-8010412#1" to="718188322#1"/>
    <trip id="veh153" type="veh_passenger" depart="361.63" departLane="best" departSpeed="max" from="1330180555#0" to="934999881#1"/>
    <trip id="veh154" type="veh_passenger" depart="363.99" departLane="best" departSpeed="max" from="1174714318" to="80698388#3"/>
    <trip id="veh157" type="veh_passenger" depart="371.08" departLane="best" departSpeed="max" from="29505715#0" to="5106516#1"/>
    <trip id="veh161" type="veh_passenger" depart="380.54" departLane="best" departSpeed="max" from="445119454#1" to="1128668075#0"/>
    <trip id="veh163" type="veh_passenger" depart="385.26" departLane="best" departSpeed="max" from="159518063#0" to="-2331704"/>
    <trip id="veh165" type="veh_passenger" depart="389.99" departLane="best" departSpeed="max" from="-5106516#1" to="-29505715#0"/>
    <trip id="veh166" type="veh_passenger" depart="392.35" departLane="best" departSpeed="max" from="1174714318" to="5049351#4"/>
    <trip id="veh167" type="veh_passenger" depart="394.72" departLane="best" departSpeed="max" from="24603064#0" to="51972127#1"/>
    <trip id="veh168" type="veh_passenger" depart="397.08" departLane="best" departSpeed="max" from="-5049351#5" to="1174525661"/>
    <trip id="veh169" type="veh_passenger" depart="399.44" departLane="best" departSpeed="max" from="24603064#0" to="80698388#3"/>
    <trip id="veh175" type="veh_passenger" depart="413.63" departLane="best" departSpeed="max" from="-1035862607" to="4973750#1"/>
    <trip id="veh177" type="veh_passenger" depart="418.35" departLane="best" departSpeed="max" from="190443810" to="19144698#1"/>
    <trip id="veh179" type="veh_passenger" depart="423.08" departLane="best" departSpeed="max" from="1174714318" to="51972127#1"/>
    <trip id="veh180" type="veh_passenger" depart="425.44" departLane="best" departSpeed="max" from="1174714318" to="5106516#1"/>
    <trip id="veh181" type="veh_passenger" depart="427.81" departLane="best" from="5049325#1" to="-29505715#0"/>
    <trip id="veh184" type="veh_passenger" depart="434.90" departLane="best" departSpeed="max" from="-934999881#1" to="-445119456#0"/>
    <trip id="veh187" type="veh_passenger" depart="441.99" departLane="best" departSpeed="max" from="159518063#0" to="-2331704"/>
    <trip id="veh191" type="veh_passenger" depart="451.44" departLane="best" departSpeed="max" from="190443810" to="178292878#5"/>
    <trip id="veh192" type="veh_passenger" depart="453.81" departLane="best" departSpeed="max" from="-51972127#1" to="19144698#1"/>
    <trip id="veh195" type="veh_passenger" depart="460.90" departLane="best" departSpeed="max" from="1174714318" to="718188322#1"/>
    <trip id="veh197" type="veh_passenger" depart="465.62" departLane="best" departSpeed="max" from="190443810" to="934999881#1"/>
    <trip id="veh198" type="veh_passenger" depart="467.99" departLane="best" departSpeed="max" from="445119454#1" to="718188322#1"/>
    <trip id="veh199" type="veh_passenger" depart="470.35" departLane="best" departSpeed="max" from="-80698388#3" to="24603064#5"/>
    <trip id="veh200" type="veh_passenger" depart="472.71" departLane="best" from="445119454#0" to="718188322#1"/>
    <trip id="veh203" type="veh_passenger" depart="479.81" departLane="best" departSpeed="max" from="-8010412#1" to="-445119456#1"/>
    <trip id="veh205" type="veh_passenger" depart="484.53" departLane="best" departSpeed="max" from="24603064#0" to="-29505715#0"/>
    <trip id="veh207" type="veh_passenger" depart="489.26" departLane="best" departSpeed="max" from="-4976151#4" to="8010412#1"/>
    <trip id="veh208" type="veh_passenger" depart="491.62" departLane="best" departSpeed="max" from="159518063#0" to="5049351#2"/>
    <trip id="veh209" type="veh_passenger" depart="493.99" departLane="best" departSpeed="max" from="-1035862607" to="80698388#3"/>
    <trip id="veh210" type="veh_passenger" depart="496.35" departLane="best" departSpeed="max" from="-19144698#1" to="5049351#4"/>
    <trip id="veh211" type="veh_passenger" depart="498.71" departLane="best" departSpeed="max" from="1330180555#0" to="4973846#5"/>
    <trip id="veh213" type="veh_passenger" depart="503.44" departLane="best" departSpeed="max" from="-19144698#1" to="-4973845#1"/>
    <trip id="veh214" type="veh_passenger" depart="505.80" departLane="best" departSpeed="max" from="1330180555#0" to="1035862607"/>
    <trip id="veh215" type="veh_passenger" depart="508.17" departLane="best" from="1174525661" to="24603064#5"/>
    <trip id="veh217" type="veh_passenger" depart="512.90" departLane="best" departSpeed="max" from="190443810" to="1282892424#0"/>
    <trip id="veh224" type="veh_passenger" depart="529.44" departLane="best" departSpeed="max" from="-445119454#1" to="-2331704"/>
    <trip id="veh229" type="veh_passenger" depart="541.26" departLane="best" departSpeed="max" from="159518063#0" to="-24603064#0"/>
    <trip id="veh233" type="veh_passenger" depart="550.71" departLane="best" from="4981404#0" to="24603064#5"/>
    <trip id="veh234" type="veh_passenger" depart="553.08" departLane="best" departSpeed="max" from="-19144698#1" to="4973750#1"/>
    <trip id="veh238" type="veh_passenger" depart="562.53" departLane="best" departSpeed="max" from="190443810" to="-4976151#2"/>
    <trip id="veh240" type="veh_passenger" depart="567.26" departLane="best" departSpeed="max" from="-51972127#1" to="718188322#1"/>
    <trip id="veh242" type="veh_passenger" depart="571.98" departLane="best" departSpeed="max" from="1174714318" to="445119456#1"/>
    <trip id="veh243" type="veh_passenger" depart="574.35" departLane="best" departSpeed="max" from="190443810" to="80698388#3"/>
    <trip id="veh246" type="veh_passenger" depart="581.44" departLane="best" departSpeed="max" from="-24603064#5" to="-2331704"/>
    <trip id="veh247" type="veh_passenger" depart="583.80" departLane="best" departSpeed="max" from="1174714318" to="1035862607"/>
    <trip id="veh251" type="veh_passenger" depart="593.26" departLane="best" departSpeed="max" from="190443810" to="4973750#1"/>
    <trip id="veh252" type="veh_passenger" depart="595.62" departLane="best" departSpeed="max" from="1174714318" to="80698388#3"/>
    <trip id="veh255" type="veh_passenger" depart="602.71" departLane="best" departSpeed="max" from="190443810" to="311837942#5"/>
    <trip id="veh256" type="veh_passenger" depart="605.07" departLane="best" departSpeed="max" from="445119454#1" to="-24603064#0"/>
    <trip id="veh257" type="veh_passenger" depart="607.44" departLane="best" departSpeed="max" from="1330180555#0" to="5049351#4"/>
    <trip id="veh260" type="veh_passenger" depart="614.53" departLane="best" departSpeed="max" from="-19144698#1" to="80698388#3"/>
    <trip id="veh261" type="veh_passenger" depart="616.89" departLane="best" from="224379941#0" to="718188323"/>
    <trip id="veh263" type="veh_passenger" depart="621.62" departLane="best" departSpeed="max" from="-178292878#5" to="5106516#1"/>
    <trip id="veh264" type="veh_passenger" depart="623.98" departLane="best" departSpeed="max" from="-8010412#1" to="4976151#4"/>
    <trip id="veh265" type="veh_passenger" depart="626.35" departLane="best" departSpeed="max" from="1174714318" to="4973750#1"/>
    <trip id="veh266" type="veh_passenger" depart="628.71" departLane="best" departSpeed="max" from="-4976151#4" to="-159518063#4"/>
    <trip id="veh267" type="veh_passenger" depart="631.07" departLane="best" departSpeed="max" from="1330180555#0" to="718188322#1"/>
    <trip id="veh268" type="veh_passenger" depart="633.44" departLane="best" from="-4973846#6" to="5049351#4"/>
    <trip id="veh269" type="veh_passenger" depart="635.80" departLane="best" from="-706072616#5" to="1070010814#1"/>
    <trip id="veh270" type="veh_passenger" depart="638.16" departLane="best" departSpeed="max" from="-4973750#1" to="934999881#1"/>
    <trip id="veh273" type="veh_passenger" depart="645.26" departLane="best" departSpeed="max" from="190443810" to="4973750#1"/>
    <trip id="veh274" type="veh_passenger" depart="647.62" departLane="best" departSpeed="max" from="190443810" to="-29505715#0"/>
    <trip id="veh276" type="veh_passenger" depart="652.35" departLane="best" departSpeed="max" from="-51972127#1" to="5049351#4"/>
    <trip id="veh278" type="veh_passenger" depart="657.07" departLane="best" departSpeed="max" from="1174714318" to="-676249789"/>
    <trip id="veh279" type="veh_passenger" depart="659.44" departLane="best" departSpeed="max" from="-934999881#1" to="-2331704"/>
    <trip id="veh282" type="veh_passenger" depart="666.53" departLane="best" departSpeed="max" from="445119454#1" to="718188322#1"/>
    <trip id="veh287" type="veh_passenger" depart="678.35" departLane="best" departSpeed="max" from="445119454#1" to="1035862607"/>
    <trip id="veh288" type="veh_passenger" depart="680.71" departLane="best" departSpeed="max" from="1174714318" to="99185877#1"/>
    <trip id="veh290" type="veh_passenger" depart="685.44" departLane="best" departSpeed="max" from="-80698388#3" to="178292878#5"/>
    <trip id="veh293" type="veh_passenger" depart="692.53" departLane="best" from="1100943510#0" to="-5122160#0"/>
    <trip id="veh294" type="veh_passenger" depart="694.89" departLane="best" departSpeed="max" from="190443810" to="5049351#4"/>
    <trip id="veh296" type="veh_passenger" depart="699.62" departLane="best" departSpeed="max" from="1174714318" to="718188322#1"/>
    <trip id="veh298" type="veh_passenger" depart="704.34" departLane="best" departSpeed="max" from="1174714318" to="8010412#1"/>
    <trip id="veh303" type="veh_passenger" depart="716.16" departLane="best" departSpeed="max" from="-4976151#4" to="5049351#2"/>
    <trip id="veh304" type="veh_passenger" depart="718.53" departLane="best" departSpeed="max" from="1174714318" to="718188322#1"/>
    <trip id="veh305" type="veh_passenger" depart="720.89" departLane="best" departSpeed="max" from="-5049351#5" to="1106875754"/>
    <trip id="veh306" type="veh_passenger" depart="723.25" departLane="best" departSpeed="max" from="159518063#0" to="5106516#1"/>
    <trip id="veh308" type="veh_passenger" depart="727.98" departLane="best" departSpeed="max" from="-19144698#1" to="4973750#1"/>
    <trip id="veh309" type="veh_passenger" depart="730.34" departLane="best" departSpeed="max" from="29505715#0" to="935001252#1"/>
    <trip id="veh313" type="veh_passenger" depart="739.80" departLane="best" departSpeed="max" from="445119454#1" to="19144698#1"/>
    <trip id="veh315" type="veh_passenger" depart="744.53" departLane="best" departSpeed="max" from="-934999881#1" to="51972127#1"/>
    <trip id="veh316" type="veh_passenger" depart="746.89" departLane="best" departSpeed="max" from="-24603064#5" to="-2331704"/>
    <trip id="veh320" type="veh_passenger" depart="756.34" departLane="best" departSpeed="max" from="-1035862607" to="718188322#1"/>
    <trip id="veh321" type="veh_passenger" depart="758.71" departLane="best" departSpeed="max" from="29505715#0" to="4976151#4"/>
    <trip id="veh325" type="veh_passenger" depart="768.16" departLane="best" from="1100943510#0" to="-33718247#1"/>
    <trip id="veh328" type="veh_passenger" depart="775.25" departLane="best" departSpeed="max" from="1174714318" to="178292878#5"/>
    <trip id="veh329" type="veh_passenger" depart="777.62" departLane="best" departSpeed="max" from="1174714318" to="4973750#1"/>
    <trip id="veh330" type="veh_passenger" depart="779.98" departLane="best" departSpeed="max" from="1330180555#0" to="5049351#4"/>
    <trip id="veh331" type="veh_passenger" depart="782.34" departLane="best" departSpeed="max" from="1174714318" to="718188322#1"/>
    <trip id="veh332" type="veh_passenger" depart="784.71" departLane="best" departSpeed="max" from="1174714318" to="1035862607"/>
    <trip id="veh333" type="veh_passenger" depart="787.07" departLane="best" departSpeed="max" from="190443810" to="-2331704"/>
    <trip id="veh334" type="veh_passenger" depart="789.43" departLane="best" departSpeed="max" from="-445119454#1" to="5106516#1"/>
    <trip id="veh338" type="veh_passenger" depart="798.89" departLane="best" departSpeed="max" from="190443810" to="5106516#1"/>
    <trip id="veh339" type="veh_passenger" depart="801.25" departLane="best" departSpeed="max" from="-4976151#4" to="-24603064#0"/>
    <trip id="veh340" type="veh_passenger" depart="803.61" departLane="best" from="-706072616#5" to="-24603064#0"/>
    <trip id="veh341" type="veh_passenger" depart="805.98" departLane="best" from="7976758#1" to="718188322#1"/>
    <trip id="veh342" type="veh_passenger" depart="808.34" departLane="best" from="176370864#0" to="934999881#1"/>
    <trip id="veh343" type="veh_passenger" depart="810.71" departLane="best" from="-8010412#0" to="718188322#1"/>
    <trip id="veh344" type="veh_passenger" depart="813.07" departLane="best" departSpeed="max" from="-5049351#5" to="51972127#1"/>
    <trip id="veh345" type="veh_passenger" depart="815.43" departLane="best" from="-706072616#5" to="4976151#4"/>
    <trip id="veh353" type="veh_passenger" depart="834.34" departLane="best" departSpeed="max" from="-4973750#1" to="24603064#5"/>
    <trip id="veh356" type="veh_passenger" depart="841.43" departLane="best" departSpeed="max" from="-5106516#1" to="-2331704"/>
    <trip id="veh360" type="veh_passenger" depart="850.89" departLane="best" from="5049325#3" to="718188322#1"/>
    <trip id="veh362" type="veh_passenger" depart="855.61" departLane="best" departSpeed="max" from="-4976151#4" to="19144698#1"/>
    <trip id="veh364" type="veh_passenger" depart="860.34" departLane="best" departSpeed="max" from="1174714318" to="4973750#1"/>
    <trip id="veh366" type="veh_passenger" depart="865.07" departLane="best" departSpeed="max" from="190443810" to="706072616#6"/>
    <trip id="veh367" type="veh_passenger" depart="867.43" departLane="best" departSpeed="max" from="-19144698#1" to="51972127#1"/>
    <trip id="veh368" type="veh_passenger" depart="869.79" departLane="best" from="-301358407#1" to="445119454#0"/>
    <trip id="veh370" type="veh_passenger" depart="874.52" departLane="best" departSpeed="max" from="-1035862607" to="718188322#1"/>
    <trip id="veh372" type="veh_passenger" depart="879.25" departLane="best" departSpeed="max" from="-1035862607" to="51972127#1"/>
    <trip id="veh374" type="veh_passenger" depart="883.98" departLane="best" departSpeed="max" from="-24603064#5" to="-2331704"/>
    <trip id="veh376" type="veh_passenger" depart="888.70" departLane="best" departSpeed="max" from="190443810" to="24603064#5"/>
    <trip id="veh380" type="veh_passenger" depart="898.16" departLane="best" departSpeed="max" from="190443810" to="8023239#2"/>
    <trip id="veh382" type="veh_passenger" depart="902.88" departLane="best" departSpeed="max" from="1330180555#0" to="24603064#5"/>
    <trip id="veh383" type="veh_passenger" depart="905.25" departLane="best" departSpeed="max" from="29505715#0" to="-2331704"/>
    <trip id="veh384" type="veh_passenger" depart="907.61" departLane="best" departSpeed="max" from="-19144698#1" to="445119454#0"/>
    <trip id="veh387" type="veh_passenger" depart="914.70" departLane="best" departSpeed="max" from="-4973750#1" to="934999881#1"/>
    <trip id="veh389" type="veh_passenger" depart="919.43" departLane="best" departSpeed="max" from="159518063#0" to="718188322#1"/>
    <trip id="veh390" type="veh_passenger" depart="921.79" departLane="best" departSpeed="max" from="1174714318" to="51972127#1"/>
    <trip id="veh391" type="veh_passenger" depart="924.16" departLane="best" departSpeed="max" from="159518063#0" to="-33718247#1"/>
    <trip id="veh393" type="veh_passenger" depart="928.88" departLane="best" departSpeed="max" from="-5106516#1" to="-2331704"/>
    <trip id="veh395" type="veh_passenger" depart="933.61" departLane="best" from="-310980423#0" to="-2331704"/>
    <trip id="veh399" type="veh_passenger" depart="943.07" departLane="best" from="-4973846#6" to="-24603064#0"/>
    <trip id="veh400" type="veh_passenger" depart="945.43" departLane="best" departSpeed="max" from="190443810" to="8010412#1"/>
    <trip id="veh401" type="veh_passenger" depart="947.79" departLane="best" departSpeed="max" from="159518063#0" to="934999881#1"/>
    <trip id="veh402" type="veh_passenger" depart="950.16" departLane="best" departSpeed="max" from="1174714318" to="178292878#5"/>
    <trip id="veh403" type="veh_passenger" depart="952.52" departLane="best" from="1174525656#0" to="-311837943#0"/>
    <trip id="veh404" type="veh_passenger" depart="954.88" departLane="best" departSpeed="max" from="1174714318" to="4973846#6"/>
    <trip id="veh405" type="veh_passenger" depart="957.25" departLane="best" departSpeed="max" from="-5049351#5" to="51972127#1"/>
    <trip id="veh408" type="veh_passenger" depart="964.34" departLane="best" from="311837943#1" to="718188322#1"/>
    <trip id="veh409" type="veh_passenger" depart="966.70" departLane="best" departSpeed="max" from="159518063#0" to="1035862607"/>
    <trip id="veh410" type="veh_passenger" depart="969.06" departLane="best" departSpeed="max" from="-5106516#1" to="-24603064#1"/>
    <trip id="veh412" type="veh_passenger" depart="973.79" departLane="best" departSpeed="max" from="190443810" to="-33718247#1"/>
    <trip id="veh413" type="veh_passenger" depart="976.16" departLane="best" departSpeed="max" from="190443810" to="311837942#1"/>
    <trip id="veh414" type="veh_passenger" depart="978.52" departLane="best" departSpeed="max" from="-19144698#1" to="-2331704"/>
    <trip id="veh415" type="veh_passenger" depart="980.88" departLane="best" departSpeed="max" from="-24603064#5" to="4973750#1"/>
    <trip id="veh417" type="veh_passenger" depart="985.61" departLane="best" departSpeed="max" from="1174714318" to="24603064#5"/>