<?xml version="1.0" encoding="UTF-8"?>

<!-- generated on 2025-01-23 05:32:41.017611 by osmWebWizard.py v1_21_0+0000-d7b3b481c43
<configuration>
    <net-file value="C:\Users\pc\Sumo\2025-01-23-05-32-24\osm.net.xml.gz"/>
    <output-trip-file value="C:\Users\pc\Sumo\2025-01-23-05-32-24\osm.pedestrian.trips.xml"/>
    <route-file value="C:\Users\pc\Sumo\2025-01-23-05-32-24\osm.pedestrian.rou.xml"/>
    <pedestrians value="True"/>
    <prefix value="ped"/>
    <vehicle-class value="pedestrian"/>
    <fringe-factor value="1"/>
    <max-distance value="2000.0"/>
    <insertion-density value="10.0"/>
</configuration>
-->

<!-- generated on 2025-01-23 05:32:39 by Eclipse SUMO duarouter Version 1.21.0
<duarouterConfiguration xmlns:xsi="http://www.w3.org/2001/XMLSchema-instance" xsi:noNamespaceSchemaLocation="http://sumo.dlr.de/xsd/duarouterConfiguration.xsd">

    <input>
        <net-file value="C:\Users\pc\Sumo\2025-01-23-05-32-24\osm.net.xml.gz"/>
        <route-files value="C:\Users\pc\Sumo\2025-01-23-05-32-24\osm.pedestrian.trips.xml"/>
    </input>

    <output>
        <output-file value="C:\Users\pc\Sumo\2025-01-23-05-32-24\osm.pedestrian.rou.xml"/>
        <alternatives-output value="NUL"/>
    </output>

    <time>
        <begin value="0.0"/>
        <end value="3600.0"/>
    </time>

    <report>
        <no-warnings value="true"/>
        <ignore-errors value="true"/>
        <no-step-log value="true"/>
    </report>

</duarouterConfiguration>
-->

<routes xmlns:xsi="http://www.w3.org/2001/XMLSchema-instance" xsi:noNamespaceSchemaLocation="http://sumo.dlr.de/xsd/routes_file.xsd">
    <vType id="ped_pedestrian" vClass="pedestrian"/>
    <person id="ped1" type="ped_pedestrian" depart="3.97">
        <walk edges="-963502549 -951670100#1 -951670101#4 -951670101#3 -951670101#2 -951670101#1 346912246#4 346912251#2 856148322#2 -22660958#4 919145533#0 562771754#0 562771754#1 -919145537 -562771752 -15687515#7 15687515#6 -1221727239#1 1221727240#0 1221727240#1 -8034595#0"/>
    </person>
    <person id="ped2" type="ped_pedestrian" depart="7.94">
        <walk edges="5049348#2 5049348#3 201817818#0 962072290#0 962072290#1 333867336#2 333867336#1 1191200166 481969796#0 481969796#1 -224570774#0 -224570774#1 426405636#5 445119475#0 444979488#0 444979488#1 166560554#1 24603066#1 444979537#3 444979514#1 444979514#0 444979486#4 444979486#3 444979486#2 444979523#0 444979523#1 445169605#1 444979543#3 444979494#0 444979494#1"/>
    </person>
    <person id="ped3" type="ped_pedestrian" depart="11.91">
        <walk edges="89798045#1 -8034596#1 8034596#0 1103210515 562771756#1 562771756#0 956426876#0 956426876#1 956426876#2 956426876#3 956426876#4 956426876#5 956426876#6 956426876#7 956426876#8 -919145539#0 956426876#10 562771758#0 562771758#1 562771758#2 700657105#0 -8040318#5 -8040317#1 500595738 500595739 562771766#7 562771766#6 562771766#5 562771766#4 562771766#3 562771766#2 562771766#1 221802418#2 221802416#0 221802420#11 1100949245 -1035862604#1 -178292877#2 178292877#3 700655214#0 -8010411#1 8010411#0 -5049325#4 -219943896#1 -219943896#2 -219943896#4 -219943896#5"/>
    </person>
    <person id="ped5" type="ped_pedestrian" depart="19.85">
        <walk edges="-722966834#4 41745704#6 953778916 -953778914#0 -953778914#1 -953778914#2 -953778915#1 956426890#0 956426890#1 89810706#0 22889301#1"/>
    </person>
    <person id="ped7" type="ped_pedestrian" depart="27.79">
        <walk edges="426101177#3 -11005770#1 -11005770#0 5049352#2 43394364 601085220#1 601085221#0 426101170#0 706124208 706124209#0 706124209#1 16144150#6 25714142#2"/>
    </person>
    <person id="ped8" type="ped_pedestrian" depart="31.76">
        <walk edges="-8010411#0 -8010411#1 700655214#0 178292877#3 -178292877#2 -1035862604#1 1100949245 221802420#11 221802416#0 221802413#1 700655215#0 700655215#1 700655222#0 700655222#1 700655220#2 -127674709#7 -127674709#6 -127674709#5 -127674709#4 -127674709#3 127674709#2 -127674709#1 956426907#0 42799114#1 42799114#0 -956426909 41745704#0 41745704#1 41745704#2 41745704#3 41745704#4 37898293#1 89664070#1 89664070#0 953778889#1 83224036#0 83224036#1 953778890#2 88221421#2 956426919 -36906882#1 36907129"/>
    </person>
    <person id="ped9" type="ped_pedestrian" depart="35.73">
        <walk edges="706124212#1 706124211 601085221#1 601085221#0 601085220#1 43394364 5049352#2 -11005770#0 -11005770#1 -11005770#2 -11005770#3 -11005770#4"/>
    </person>
    <person id="ped10" type="ped_pedestrian" depart="39.70">
        <walk edges="700658500#1 700658500#0 -447888175#1 942128688#0 956426875#1 956426875#0 16189600#2 16189600#0 700657104 1165241181#1 700655218#3 700655218#2 700655219#1 700655221#1 700655220#1 700655220#2 700655220#3 700655220#4 500595752#0 500595752#1 500595751#0 500595751#1 221802415#4 221802415#5 221802415#6 500595758#0 221802415#9 221802415#10 445119477#1 445119477#0 445119480#2 445119480#1 1035862614#1 445119461 444979531#1 444979531#0 445169598#1 445169566 445169591#1 426405630#0 426405636#3 426405636#4 445119475#0"/>
    </person>
    <person id="ped11" type="ped_pedestrian" depart="43.66">
        <walk edges="1227035926 89798045#1 -8034596#1 8034596#0 1103210515 919145531#3 919145531#2 919145531#1 1105915894#1 956426875#2 956426875#1 956426875#0 16189600#2 16189600#0 700657104 1165241181#1 700655218#3 700655218#2 700655219#1 700655221#1 1105915877 -35838071#1 -127674709#6 -127674709#5 -127674709#4 -127674709#3 127674709#2 -127674709#1 956426907#0 42799114#1 42799114#0 -956426909 -8098646#0 -36901975#1 36901976 36901981#0 36901981#1 -36906436#0 -36906436#1 -36906436#2 -36906436#3 -36906436#4 -36906436#5 -36906436#6 8098651#6 -37332513#0 -37332513#1 8098651#2 -22889301#5 -22889301#4 -42859312#0 -42859312#1 89810706#4 711338709#1 711338709#0 -37936065#3"/>
    </person>
    <person id="ped12" type="ped_pedestrian" depart="47.63">
        <walk edges="956426896#1 706124212#0 1105915850 25714144 221802415#19 1320178878 625851690#1 426101181#3 15601121 167823338#1 1293452384 8041199#0 167823313#1 167823313#2 167823313#3 167823313#4 1200010370 224484949 224484956#0 -24603106#0 1200010379#1"/>
    </person>
    <person id="ped13" type="ped_pedestrian" depart="51.60">
        <walk edges="-22661028#3 22661028#2 -711052791 1042336941#1 711052788 22927205#4 -22927205#3"/>
    </person>
    <person id="ped14" type="ped_pedestrian" depart="55.57">
        <walk edges="764632711#0 -764632711#1 36907129 -36906882#1 956426919 88221421#2 953778890#2 83224036#1 83224036#0 953778889#1 89664070#0 89664070#1 37898293#1 41745704#4 41745704#3 41745704#2 41745704#1 -36901974 -36901975#1 36901976 36901981#0 36901981#1 -36906436#0 -37694028 37694027"/>
    </person>
    <person id="ped15" type="ped_pedestrian" depart="59.54">
        <walk edges="706124207 700655224#1 1312412092#1 1316807891#0 1316807891#1 700655223#5 700655223#4 -500595756#1 500595756#2"/>
    </person>
    <person id="ped16" type="ped_pedestrian" depart="63.51">
        <walk edges="25312129#0 25312129#1 956426901#0 25312130 25312121 956426903#2 956426903#1 956426903#0 700655220#7 700655220#6 700655220#5 700655220#4 700655220#3 700655220#2 700655220#1 700655221#1 700655219#1 700655218#2 700655218#3 1165241181#1 700657104 16189600#0 16189600#2 956426875#0 956426875#1 956426875#2 1105915894#0 956426876#2 956426876#1 956426876#0 919145534#1 919145533#2 919145533#1 919145533#0 -22660958#4 856148322#2 346912251#2 346912246#4 346912246#3 951670109#0 951670109#1 346912249#2 346912249#1 963502554"/>
    </person>
    <person id="ped17" type="ped_pedestrian" depart="67.48">
        <walk edges="1316807894#1 -1316807894#0 965712212 1035862612#6 445119480#3 445119480#2 445119480#1 1035862614#1 445119461 444979531#1 444979531#0 445169598#1 426405630#1 221802415#16 221802415#17 221802415#18 221802415#19 1320178878 625851690#1 224570782 481969793#1 1191200170#2 225385059#1 225385059#2 9226782 9226783 -295659501#0 -295659501#1 -295659501#2 295659501#3"/>
    </person>
    <person id="ped18" type="ped_pedestrian" depart="71.45">
        <walk edges="711052821#1 -711052821#0 711052825 1248840308#0 500595757#0 500595757#1 500595757#2 221802415#2 500595752#3 500595752#2 500595752#1 500595752#0 700655220#4 700655220#3 -127674709#7 -127674709#6 -127674709#5 -127674709#4 -127674709#3 127674709#2 -127674709#1 956426907#0 42799114#1 42799114#0 -956426909 41745704#0 41745704#1 41745704#2 41745704#3 41745704#4 37898293#1 89664070#1 89664070#0 953778889#1 953778889#0 37898298#0 505081688#11 956426918#0 -37899611#1 37899611#2"/>
    </person>
    <person id="ped19" type="ped_pedestrian" depart="75.42">
        <walk edges="80581653#1 706124207 700655224#1 500595761#1 500595761#0 500595762 956426903#2 956426903#1 956426903#0 700655220#7 700655220#6 700655220#5 700655220#4 700655220#3 -127674709#7 -127674709#6 -127674709#5 -127674709#4 -127674709#3 35838075#2"/>
    </person>
    <person id="ped20" type="ped_pedestrian" depart="79.39">
        <walk edges="445119487#3 851907083 445119482#1 1272668905 23728208#2 1316807889 185581223#1 185581215#8 185581215#7 185581215#6 185581215#5 185581215#4 185581215#3 444979497#1 444979497#0 445119474#1 445119466#0 445119466#1 711052827#1 221802420#0 221802420#1 221802420#2 1316807894#1 1316807893 221802420#4 500595758#1 221802415#6 221802415#5 221802415#4 500595751#1 500595751#0 500595752#1 500595752#0 700655220#4 700655220#3 700655220#2 700655220#1 700655221#1 700655219#1 700655218#2 700655218#3 1165241181#1 700657104 16189600#0 16189600#2 956426875#0 956426875#1 956426875#2 1105915894#1 919145531#1 919145531#2 919145531#3 1103210515 8034596#0 -8034596#1 -8034596#2 -1221727239#0 -1221727239#1 1221727240#0 -1350418930#0 1350418930#1 1350418930#2 -1350418930#3"/>
    </person>
    <person id="ped21" type="ped_pedestrian" depart="83.36">
        <walk edges="-8040319 8040318#0 700657104 1165241181#1 700655218#3 700655218#2 700655219#1 700655221#1 700655220#1 700655220#2 700655220#3 700655220#4 500595752#0 500595752#1 500595751#0 500595751#1 221802415#4 221802415#5 221802415#6 500595758#0 221802415#9 221802415#10 445119477#1 445119477#0 445119480#2 1309422589 1309422591#1 1309422591#0 1309422592#1 -1309422593 -445119481#1 1035862612#2 1035862612#1"/>
    </person>
    <person id="ped22" type="ped_pedestrian" depart="87.33">
        <walk edges="-19145589#2 -37936056#1 41534227 41745700 42507475 42507474 41700285#1 41700285#0 505081688#9 505081688#10 505081688#11 -722966834#0 83224036#1 953778890#2 953778890#0 42691776#2 37448870#0 37893866 -8098640#1"/>
    </person>
    <person id="ped23" type="ped_pedestrian" depart="91.30">
        <walk edges="-23555871#1 -23555871#0 -65047161#0 -23555870#4 -23555870#3 -23555870#2 -23555870#1 -23555870#0 -711052781#2 -711052781#1 711052780#1 711052780#0 346912234#8 346912234#7 346912234#6 346912232#3 346912232#2 346912232#1 346912232#0 221802409#7 221802409#6 221802409#5 221802409#4 221802409#3 562771801#0 562771763#0 562771766#8 562771766#7 562771766#6 562771766#5 562771766#4 562771766#3 562771766#2 562771766#1 562771766#0 700655216#0 700655217#2 700655221#1 1105915877 -97888153#0 -97888153#1"/>
    </person>
    <person id="ped24" type="ped_pedestrian" depart="95.27">
        <walk edges="421650095#0 421650095#1 185581215#3 444979497#1 444979497#0 445119474#1 445119466#0 445119466#1 711052827#1 221802420#0 221802420#1 221802420#2 1316807894#1 1316807893 221802420#4 500595758#1 221802415#7 1312412092#0 1316807891#0 500595760 500595759 956426903#1 1105915859 25312120#2 -25312120#1 -25312120#0 25312119 956426907#1 956426907#0 -37333247 -8579353#0 -8579353#1 -8579353#2 -956426911 111049096 -37936057#2 -37936057#1 37936057#0 -37936056#3 41871111#1 41871111#0 41864865 36851172 -36846914#0 1292523305#1 -913624609#1 8169196#0 8169196#1 14857489#1 1292523309#3"/>
    </person>
    <person id="ped28" type="ped_pedestrian" depart="111.15">
        <walk edges="-43838840#4 -478475473#0 15687538#4 -15687538#3 -15687538#2 15687538#1 -8040319 8040318#0 700657104 1165241181#1 700655218#3 700655218#2 700655219#1 700655221#1 700655220#1 700655220#2 700655220#3 700655220#4 500595752#0 500595752#1 500595751#0 500595751#1 221802415#4 500595755"/>
    </person>
    <person id="ped29" type="ped_pedestrian" depart="115.12">
        <walk edges="-426101168#0 -426101168#1 5049391#0 -5049391#1 224484948 224484953 224484956#1 224484956#0 224484949 1200010370 167823313#4 167823313#3 167823313#2 167823313#1 8041199#0 1293452384 167823338#1 15601121 426101181#3 625851690#1 1320178878 221802415#19 221802415#18 221802415#17 221802415#16 426405630#1 445169598#1 444979531#0 444979531#1 445119461 1035862614#1 445119480#1 445119480#2 445119480#3 1035862612#6 965712212 -1316807894#0 221802420#2 1316807895#0"/>
    </person>
    <person id="ped30" type="ped_pedestrian" depart="119.09">
        <walk edges="99185894#2 99185882#1 1104523343 955385976#1 1272668897 445119460#1 445119462 444979509#1 185581214#1 956131408 185581216 185581215#0 185581215#1 185581215#2 444979541#2 445169583#0 445169583#1 1035862612#4 1035862612#5 1035862612#6 445119480#3 445119477#0 445119477#1 221802415#10 -51972127#1 19144692#0 706124207 676249788#2 706124216#0 706124216#1 706124210 706124209#1 706124209#0 706124208 426101170#0 601085221#0 601085220#1 43394364 5049352#2 5049352#1 426101180#0 426101150 426101149 426101153"/>
    </person>
    <person id="ped31" type="ped_pedestrian" depart="123.06">
        <walk edges="304356498 5049348#2 5049348#3 201817818#0 962072290#0 962072290#1 333867336#2 333867336#1 1191200166 481969796#0 481969796#1 -224570774#0 -224570774#1 426405636#5 445119475#0 444979488#0 444979488#1 166560554#1 24603066#1 444979537#3 444979514#1 444979514#0 444979486#4 444979486#3 444979486#2 444979523#0"/>
    </person>
    <person id="ped34" type="ped_pedestrian" depart="134.96">
        <walk edges="1105915859 956426903#0 700655220#7 700655220#6 700655220#5 700655220#4 700655220#3 700655220#2 700655220#1 700655221#1 700655219#1 700655218#2 700655218#3 1165241181#1 700657104 16189600#0 16189600#2 956426875#0 956426875#1 956426875#2 1105915894#0 956426876#2 956426876#1 956426876#0 919145534#1 919145533#2 919145533#1 919145533#0 562771745#2 562771745#1 15687520#3 15687520#2 15687520#1 15687520#0 1135610880#1 -95452753"/>
    </person>
    <person id="ped35" type="ped_pedestrian" depart="138.93">
        <walk edges="-711052819 -711052823#2 -711052823#1 700653009#5 711052827#3 711052827#2 445119466#1 445119466#0 445119474#1 444979497#0 444979497#1 185581215#3 185581215#4 185581215#5 185581215#6 185581215#7 185581215#8 185581223#1 1316807889 23728208#2 1272668905 955385963 955385961#1"/>
    </person>
    <person id="ped36" type="ped_pedestrian" depart="142.90">
        <walk edges="851907070 25312126#4 25714145#3 25714145#2 25714145#1 25714145#0 25714138#4 25714138#3 25714138#2 615658422#1 706124216#0 676249788#2 -80581653#1 500595765#1 1105915857 1105915851 1105915856 1105915855"/>
    </person>
    <person id="ped37" type="ped_pedestrian" depart="146.87">
        <walk edges="426405630#1 221802415#15 221802415#14 221802415#13 221802415#12 221802415#11 221802415#10 221802415#9 500595758#0 221802415#6 221802415#5 221802415#4 500595751#1 500595751#0 500595752#1 500595752#0 700655220#4 700655220#3 700655220#2 700655220#1 700655221#1 700655219#1 700655218#2 700655218#3 1165241181#1 700657104 16189600#0 16189600#2 51564471 -562771760 -919145529 15687515#0 -93212611#0 -93212611#1 -19794600 -1350418934 -37853548#0 -37853548#2 -37853548#3 1350418933#0"/>
    </person>
    <person id="ped38" type="ped_pedestrian" depart="150.84">
        <walk edges="942128696#0 942128697 -942128692#0 942128708#0 1105915894#1 956426875#2 956426875#1 956426875#0 16189600#2 16189600#0 700657104 1165241181#1 700655218#3 700655218#2 700655219#1 700655221#1 700655220#1 700655220#2 700655220#3 700655220#4 700655220#5 700655220#6 700655220#7 956426903#0 956426903#1 956426903#2 500595762 500595761#0 500595761#1 700655224#1 706124207 676249788#2 706124216#0 706124216#1 706124210 706124215#0 706124215#1 956426896#1 706124212#1 -205527934#1 205527934#0"/>
    </person>
    <person id="ped41" type="ped_pedestrian" depart="162.75">
        <walk edges="36902096 -36906436#2 -36906436#3 -36906436#4 -36906436#5 -36906436#6 8098651#6 8098651#5 8098651#4 495397203 711338705 89810707#0 89810707#1"/>
    </person>
    <person id="ped42" type="ped_pedestrian" depart="166.72">
        <walk edges="136174438#1 136174438#2 136174438#3 -1201497668#1 10423241 167823328#0 167823328#1 224484946 224484942 224570782 426101181#3 426101181#2 426101181#1 426101166#0 601085221#1 205527933#0 205527933#1 205527933#2 706124213#2 -706124213#3 -706124213#4 -956426895#0 -956426895#2 -956426895#3 -956426895#4 -956426895#5 711338709#0 711338709#1 89810706#4 89810706#3 89810706#2 89810706#1 89810706#0 956426890#1 956426890#0 -953778915#1 -953778914#2 -953778914#1 -953778914#0 953778902#2 42691776#3 42691776#2 953778890#0 88221421#0 37869190#1 -36906882#0 -36906882#1 36907129 -764632711#1 -764632711#0"/>
    </person>
    <person id="ped43" type="ped_pedestrian" depart="170.69">
        <walk edges="9930063#3 9930063#2 9930066#0 9930066#1 9930066#2 99185872#3 99185903#2 -5049325#0 700653010#0 -5049325#3 -5049325#4 8010411#0 8010411#1 8010411#2 1104523326#1 -1104523326#2 1104523326#3 -1128668071 -500595747 1319983739#0 1319983739#1 22927205#0 22927205#1 22927205#2 22927205#3 22927205#4 22927205#5 22927205#6 22927205#7"/>
    </person>
    <person id="ped44" type="ped_pedestrian" depart="174.66">
        <walk edges="-22660958#3 -22660958#4 919145533#0 562771754#0 562771754#1 -919145537 -562771752 -15687515#7 15687515#6 15687515#5 -15687515#4 -37873337#1 1350418931#2 -1350418931#3"/>
    </person>
    <person id="ped45" type="ped_pedestrian" depart="178.63">
        <walk edges="-24603106#3 24603107 167823313#1 8041199#0 1293452384 167823338#1 15601121 426101181#2 426101181#1 426101166#0 601085221#1 205527933#0 205527933#1 205527933#2 706124213#2 -706124213#3 -706124213#4 -956426895#0 -956426895#2 -956426895#3 -956426895#4 -956426895#5 711338709#0 711338709#1 89810706#4 89810706#3 89810706#2 89810706#1 89810706#0 956426890#1 956426890#0 -953778915#1 -953778914#2 -953778914#1 -953778914#0 953778902#0 953778905 722966834#2 -722966834#1 -722966834#0 505081688#11 505081688#10 505081688#9 41700285#0 41700285#1 42507474 42507475 41745700 41534227 -37936056#1 41871111#1 41871111#0 41864865 36851172 -36846914#0 1292523305#1 37978179#2"/>
    </person>
    <person id="ped47" type="ped_pedestrian" depart="186.57">
        <walk edges="-15796487#1 -9549066#1 562771749#4 562771749#3 562771749#2 562771749#1 562771750#2 562771750#1 562771750#0 -562771752 919145532 1103210515 562771756#1 562771756#0 956426876#0 956426876#1 956426876#2 956426876#3 -96647835#1 -96647835#2 -96647835#3 -96647837#3 1317004550 96647837#0 -96647837#1 1317004547"/>
    </person>
    <person id="ped48" type="ped_pedestrian" depart="190.54">
        <walk edges="9930062#1 9930062#2 9930062#3 9930063#1 9930066#0 99185880#2 99185880#1 99185900#6 9930061#4 -9930061#3 -9930061#2 -9930061#1 -9930061#0 1282507835#0 4973846#7 4973846#6 4973846#5 4973846#2 4973846#1 221802420#5 500595758#1 221802415#7 1312412092#0 1312412092#1 500595761#1 500595761#0 500595762 25312121 25312130 956426900#1 956426900#0 956426894#3 956426894#2 956426894#1 1101787888#2 1101787888#1 1101787888#0 25312124#6 25312124#5 25312124#4"/>
    </person>
    <person id="ped50" type="ped_pedestrian" depart="198.48">
        <walk edges="-1105915850 706124209#0 706124209#1 706124210 706124216#1 706124216#0 676249788#2 706124207 700655224#1 1312412092#1 1312412092#0 221802415#7 500595758#1 221802420#5 4973846#1 4973846#2"/>
    </person>
    <person id="ped51" type="ped_pedestrian" depart="202.45">
        <walk edges="444979518#0 444979518#1 445169606#1 444979543#0 444979520#2 1035862613#1 1035862612#0 1035862612#1 1035862612#2 -445119481#1 -1309422593 1309422592#1 1309422591#0 1309422591#1 1309422589 445119480#2 445119477#0 445119477#1 221802415#10 221802415#9 221802415#8 1312412092#0 1312412092#1 500595761#1 500595761#0 500595762 25312121 25312130"/>
    </person>
    <person id="ped53" type="ped_pedestrian" depart="210.39">
        <walk edges="-25714143#1 25714143#0 221802415#17 221802415#18 221802415#19 1320178878 625851690#1 426101181#3 15601121 167823338#1"/>
    </person>
    <person id="ped55" type="ped_pedestrian" depart="218.32">
        <walk edges="851907068 956426894#2 956426894#3 956426900#0 956426900#1 25312130 25312121 956426903#2 956426903#1 956426903#0 700655220#7 700655220#6 700655220#5 700655220#4 700655220#3 700655220#2 700655220#1 700655221#1 700655219#1 700655218#2 700655218#3 1165241181#1 700657104 16189600#0 16189600#2 956426875#0 956426875#1 956426875#2 1105915894#0 956426876#2 956426876#1 956426876#0 919145534#1 919145533#2 919145533#1 919145533#0 -22660958#4 856148322#2 346912251#2 346912246#4 -951670101#1 -951670101#2 -951670101#3"/>
    </person>
    <person id="ped56" type="ped_pedestrian" depart="222.29">
        <walk edges="22660956#0 221802409#8 221802409#7 221802409#6 221802409#5 221802409#4 221802409#3 221802409#2 221802409#1 221802409#0 1104523326#3 221802418#0 221802416#0 221802420#11 221802420#10 221802420#9 221802420#8 221802420#7 221802420#6 221802415#7 1312412092#0 1312412092#1 700655224#1 706124207 676249788#2 706124216#0 706124216#1 25714140#0 25714140#1 25714140#2 25714140#3 25714140#4 -445119478#1"/>
    </person>
    <person id="ped57" type="ped_pedestrian" depart="226.26">
        <walk edges="942128688#2 942128688#1 942128688#0 956426875#1 956426875#0 16189600#2 16189600#0 8040318#0 -8040319 15687538#1 -14184140#1 8169196#1 8169196#0"/>
    </person>
    <person id="ped58" type="ped_pedestrian" depart="230.23">
        <walk edges="1100949244 -80540086 4973846#1 221802420#5 500595758#1 221802415#7 1312412092#0 1312412092#1 700655224#1 706124207 676249788#2 706124216#0 706124216#1 706124210 706124209#1 706124209#0 706124208 426101170#0 601085221#0 601085220#1 43394364 5049352#2 5049352#1 426101180#0 426101150 426101149"/>
    </person>
    <person id="ped59" type="ped_pedestrian" depart="234.20">
        <walk edges="37853548#2 -37853548#0 -1350418934 -19794600 -93212611#1 -93212611#0 15687515#0 -919145529 -8169194 -14184140#1 8169196#1 8169196#0 -913624609#1 1292523305#1 -36846914#0 36851172 41864865 41871111#0 41871111#1 -37936056#3 -37936057#0"/>
    </person>
    <person id="ped60" type="ped_pedestrian" depart="238.17">
        <walk edges="562771766#5 562771766#4 562771766#3 562771766#2 562771766#1 221802418#2 221802416#2 221802415#0 221802415#1 221802415#2 500595752#3 500595749 500595750#0 500595750#1 500595748 -19145591#1 700655223#3 700655223#4 1316807890#0 1316807890#1 956426903#0 956426903#1 956426903#2 25312121 25312130 956426900#1 25714139 25714138#1"/>
    </person>
    <person id="ped62" type="ped_pedestrian" depart="246.11">
        <walk edges="-10055950#1 956426893#0 956426893#1 956426893#2 -15601122#0 -15601122#1 -711338710#0 -711338710#1 25312126#1 25312126#2 25312126#3 25312126#4 25714145#3 25714145#2 25714145#1 25714145#0 25714138#4 25714138#3 25714138#2 615658422#1 706124216#0 676249788#2 706124207 19144692#0 -51972127#1 221802415#10 445119477#1 445119477#0 445119480#2 1309422589 1309422591#1 1309422591#0 1309422592#1 -1309422593 -445119481#1 1035862612#2 444979512#1 444979512#0 444979541#4 185581213#1 185581223#2 185581223#1 1316807889 23728208#2 1272668905 445119482#1 851907083 445119487#2 445119479#1 445119472#1 445169557#0 -114470391#1 114470391#0"/>
    </person>
    <person id="ped63" type="ped_pedestrian" depart="250.08">
        <walk edges="-1200010379#1 -24603106#0 224484956#0 224484949 1200010370 167823313#4 167823313#3 167823313#2 167823313#1 8041199#0 1293452384 167823338#1 15601121 426101181#3 625851690#1 303691443#0 953195636#8"/>
    </person>
    <person id="ped64" type="ped_pedestrian" depart="254.05">
        <walk edges="851907102#1 -913670112 913670113 224484940 136174438#1 136174438#2 136174438#3 -1201497668#1 10423241 10423239#0 10423239#1 426405636#5 445119475#0 444979488#0 444979488#1 166560554#0 166560552 61502982 99186065 444979520#0 426405633#2 426405633#3 1035862612#0 1035862612#1 1035862612#2 1035862612#3 1035862612#4 444979502 711052827#0 711052827#1 711052827#2 711052827#3 700653009#5 700653009#4 711052826#0"/>
    </person>
    <person id="ped65" type="ped_pedestrian" depart="258.02">
        <walk edges="1104523334 99185879#2 99185882#0 99185882#1 1104523343 955385976#1 1272668897 445119460#1 445119462 444979509#1 185581214#1 956131408 185581216 185581215#0 185581215#1 185581215#2 444979541#2 445169583#0 445169583#1 1035862612#4 1035862612#5 1035862612#6 445119480#3 445119477#0 445119477#1 221802415#10 -51972127#1 19144692#0 706124207 676249788#2 706124216#0 706124216#1 706124210 706124215#0 706124215#1 956426896#1 706124212#1 -205527934#1 205527934#0 -15601122#5"/>
    </person>
    <person id="ped66" type="ped_pedestrian" depart="261.99">
        <walk edges="851907097 481969796#1 -224570774#0 -224570774#1 426405636#5 426405636#4 426405636#3 426405630#0 445169591#1 445169566 445169598#1 444979531#0 444979531#1 445119461 1035862614#1 445119480#1 445119480#2 445119477#0 445119477#1 221802415#10 221802415#9 500595758#0 221802415#6 221802415#5 221802415#4 500595751#1 500595751#0 500595752#1 500595752#0 700655220#4 700655220#3 700655220#2 700655220#1 700655221#1 700655219#1 700655218#2 700655218#3 1165241181#1 700657104 16189600#0 16189600#2 956426875#0 956426875#1"/>
    </person>
    <person id="ped67" type="ped_pedestrian" depart="265.96">
        <walk edges="-219943894#0 700653010#4 700653010#5 4973846#2 4973846#1 221802420#5"/>
    </person>
    <person id="ped69" type="ped_pedestrian" depart="273.90">
        <walk edges="562771775 956426876#7 956426876#8 -919145539#0 956426876#10 562771758#0 562771758#1 16189600#0 700657104 1165241181#1 700655218#3 700655218#2 700655219#1 700655221#1 1105915877 -35838071#1 -127674709#6 -127674709#5 -127674709#4 -127674709#3 127674709#2 -127674709#1 956426907#0 42799114#1 42799114#0 -956426909 -8098646#0 -36901975#1 36901976 36901981#0 36901981#1 -36906436#0 -36906436#1 -36906436#2 -36906436#3 -36906436#4 -36906436#5 -36906436#6 -89802386#1 -89802386#2 -36876062#1"/>
    </person>
    <person id="ped70" type="ped_pedestrian" depart="277.87">
        <walk edges="221802415#0 221802413#0 700655215#0 700655215#1 700655222#0 700655222#1 700655220#2 -127674709#7 -127674709#6 -127674709#5 -127674709#4 -127674709#3 -35838075#1 22661080#2 -25312120#0 -25312120#1 25714184#0"/>
    </person>
    <person id="ped71" type="ped_pedestrian" depart="281.84">
        <walk edges="-953778914#0 -953778914#1 -953778914#2 -953778915#1 956426890#0 956426890#1 89810706#0 22889301#1 -22889301#2 -22889301#4 -22889301#5 8098651#2 8098651#3 495397203 -89802386#5 82406079"/>
    </person>
    <person id="ped73" type="ped_pedestrian" depart="289.78">
        <walk edges="25714138#1 25714139 956426900#1 25312130 25312121 956426903#2 956426903#1 956426903#0 1316807890#1 1316807890#0 700655223#4 700655223#3 -19145591#1 500595748 500595750#1 500595750#0 500595749 500595752#3 221802415#2 500595757#2 500595757#1 500595757#0"/>
    </person>
    <person id="ped74" type="ped_pedestrian" depart="293.75">
        <walk edges="-706124213#3 25714145#2 25714145#1 25714145#0 1101787890#0 956426894#1 956426894#2 956426894#3 956426900#0 956426900#1 25312130 25312121 500595762 500595761#0 500595761#1 1312412092#1 1312412092#0 221802415#7 500595758#1 221802420#5 4973846#1 4973846#2 4973846#5 4973846#6 4973846#7 1282507835#0 -9930061#0 -9930061#1 1104523339#3 1104523339#2 1104523339#1 1104523339#0 99185879#5 1104523340#1"/>
    </person>
    <person id="ped75" type="ped_pedestrian" depart="297.71">
        <walk edges="9930061#4 -9930061#3 -9930061#2 -9930061#1 -9930061#0 1282507835#0 4973846#7 4973846#6 4973846#5 4973846#2 4973846#1 221802420#5 500595758#1 221802415#7 1312412092#0 1312412092#1 700655224#1 706124207 676249788#2 706124216#0 706124216#1 706124210 706124209#1 706124209#0 706124208 426101170#0 601085221#0 601085220#1 43394364 5049352#2 -11005770#0 -11005770#1 426101177#3"/>
    </person>
    <person id="ped76" type="ped_pedestrian" depart="301.68">
        <walk edges="17506465 17506453#1 295660421 295660420#1 1308847607 225385059#1 1191200170#2 481969793#1 224570782 625851690#1 1320178878 221802415#19 221802415#18 221802415#17 221802415#16 221802415#15 221802415#14 221802415#13 221802415#12 221802415#11 221802415#10 221802415#9 500595758#0 221802420#6 221802420#7 221802420#8 221802420#9 221802420#10 221802420#11 221802416#0 221802418#0 1104523326#3 -1128668071 -500595747 1319983739#0 1319983739#1 22927205#0 22927205#1 22927205#2 22927205#3 22927205#4 711052788 1042336941#1 -711052791 22661028#1 1164960608#3 1164960608#2 -1164960608#1 1164960613 -711052806#0 8033546#3 -8033546#2 -8033546#1 -8033546#0 23987295#1"/>
    </person>
    <person id="ped77" type="ped_pedestrian" depart="305.65">
        <walk edges="-35838068#3 -35838073#0 -127674709#6 -35838071#1 1105915877 700655221#1 700655217#2 700655216#0 562771766#0 562771766#1 562771766#2 562771766#3 562771766#4 562771766#5 562771766#6 562771766#7 500595739 500595738 -8040314#0 -8040314#1 -1319981006#1 -8040312"/>
    </person>
    <person id="ped78" type="ped_pedestrian" depart="309.62">