<?xml version="1.0" encoding="UTF-8"?>

<!-- generated on 2025-01-23 05:32:38.442522 by osmWebWizard.py v1_21_0+0000-d7b3b481c43
<configuration>
    <net-file value="C:\Users\pc\Sumo\2025-01-23-05-32-24\osm.net.xml.gz"/>
    <output-trip-file value="C:\Users\pc\Sumo\2025-01-23-05-32-24\osm.pedestrian.trips.xml"/>
    <route-file value="C:\Users\pc\Sumo\2025-01-23-05-32-24\osm.pedestrian.rou.xml"/>
    <pedestrians value="True"/>
    <prefix value="ped"/>
    <vehicle-class value="pedestrian"/>
    <fringe-factor value="1"/>
    <max-distance value="2000.0"/>
    <insertion-density value="10.0"/>
</configuration>
-->

<routes xmlns:xsi="http://www.w3.org/2001/XMLSchema-instance" xsi:noNamespaceSchemaLocation="http://sumo.dlr.de/xsd/routes_file.xsd">
    <vType id="ped_pedestrian" vClass="pedestrian"/>
    <person id="ped0" depart="0.00" type="ped_pedestrian">
        <walk from="426101151" to="-127674709#4"/>
    </person>
    <person id="ped1" depart="3.97" type="ped_pedestrian">
        <walk from="-963502549" to="-8034595#0"/>
    </person>
    <person id="ped2" depart="7.94" type="ped_pedestrian">
        <walk from="5049348#2" to="444979494#1"/>
    </person>
    <person id="ped3" depart="11.91" type="ped_pedestrian">
        <walk from="89798045#1" to="-219943896#5"/>
    </person>
    <person id="ped4" depart="15.88" type="ped_pedestrian">
        <walk from="159536695" to="-1292523309#3"/>
    </person>
    <person id="ped5" depart="19.85" type="ped_pedestrian">
        <walk from="-722966834#4" to="22889301#1"/>
    </person>
    <person id="ped6" depart="23.82" type="ped_pedestrian">
        <walk from="-1282507837" to="-700648283"/>
    </person>
    <person id="ped7" depart="27.79" type="ped_pedestrian">
        <walk from="426101177#3" to="25714142#2"/>
    </person>
    <person id="ped8" depart="31.76" type="ped_pedestrian">
        <walk from="-8010411#0" to="36907129"/>
    </person>
    <person id="ped9" depart="35.73" type="ped_pedestrian">
        <walk from="706124212#1" to="-11005770#4"/>
    </person>
    <person id="ped10" depart="39.70" type="ped_pedestrian">
        <walk from="700658500#1" to="445119475#0"/>
    </person>
    <person id="ped11" depart="43.66" type="ped_pedestrian">
        <walk from="1227035926" to="-37936065#3"/>
    </person>
    <person id="ped12" depart="47.63" type="ped_pedestrian">
        <walk from="956426896#1" to="1200010379#1"/>
    </person>
    <person id="ped13" depart="51.60" type="ped_pedestrian">
        <walk from="-22661028#3" to="-22927205#3"/>
    </person>
    <person id="ped14" depart="55.57" type="ped_pedestrian">
        <walk from="764632711#0" to="37694027"/>
    </person>
    <person id="ped15" depart="59.54" type="ped_pedestrian">
        <walk from="706124207" to="500595756#2"/>
    </person>
    <person id="ped16" depart="63.51" type="ped_pedestrian">
        <walk from="25312129#0" to="963502554"/>
    </person>
    <person id="ped17" depart="67.48" type="ped_pedestrian">
        <walk from="1316807894#1" to="295659501#3"/>
    </person>
    <person id="ped18" depart="71.45" type="ped_pedestrian">
        <walk from="711052821#1" to="37899611#2"/>
    </person>
    <person id="ped19" depart="75.42" type="ped_pedestrian">
        <walk from="80581653#1" to="35838075#2"/>
    </person>
    <person id="ped20" depart="79.39" type="ped_pedestrian">
        <walk from="445119487#3" to="-1350418930#3"/>
    </person>
    <person id="ped21" depart="83.36" type="ped_pedestrian">
        <walk from="-8040319" to="1035862612#1"/>
    </person>
    <person id="ped22" depart="87.33" type="ped_pedestrian">
        <walk from="-19145589#2" to="-8098640#1"/>
    </person>
    <person id="ped23" depart="91.30" type="ped_pedestrian">
        <walk from="-23555871#1" to="-97888153#1"/>
    </person>
    <person id="ped24" depart="95.27" type="ped_pedestrian">
        <walk from="421650095#0" to="1292523309#3"/>
    </person>
    <person id="ped25" depart="99.24" type="ped_pedestrian">
        <walk from="1309056985#9" to="-711052814#1"/>
    </person>
    <person id="ped26" depart="103.21" type="ped_pedestrian">
        <walk from="-95452746" to="953778914#1"/>
    </person>
    <person id="ped27" depart="107.18" type="ped_pedestrian">
        <walk from="426101174#1" to="37853548#3"/>
    </person>
    <person id="ped28" depart="111.15" type="ped_pedestrian">
        <walk from="-43838840#4" to="500595755"/>
    </person>
    <person id="ped29" depart="115.12" type="ped_pedestrian">
        <walk from="-426101168#0" to="1316807895#0"/>
    </person>
    <person id="ped30" depart="119.09" type="ped_pedestrian">
        <walk from="99185894#2" to="426101153"/>
    </person>
    <person id="ped31" depart="123.06" type="ped_pedestrian">
        <walk from="304356498" to="444979523#0"/>
    </person>
    <person id="ped32" depart="127.03" type="ped_pedestrian">
        <walk from="7181172#3" to="624512431"/>
    </person>
    <person id="ped33" depart="130.99" type="ped_pedestrian">
        <walk from="-80447903" to="-1309056985#4"/>
    </person>
    <person id="ped34" depart="134.96" type="ped_pedestrian">
        <walk from="1105915859" to="-95452753"/>
    </person>
    <person id="ped35" depart="138.93" type="ped_pedestrian">
        <walk from="-711052819" to="955385961#1"/>
    </person>
    <person id="ped36" depart="142.90" type="ped_pedestrian">
        <walk from="851907070" to="1105915855"/>
    </person>
    <person id="ped37" depart="146.87" type="ped_pedestrian">
        <walk from="426405630#1" to="1350418933#0"/>
    </person>
    <person id="ped38" depart="150.84" type="ped_pedestrian">
        <walk from="942128696#0" to="205527934#0"/>
    </person>
    <person id="ped39" depart="154.81" type="ped_pedestrian">
        <walk from="-951670108" to="-89681092"/>
    </person>
    <person id="ped40" depart="158.78" type="ped_pedestrian">
        <walk from="346912230" to="-951670101#1"/>
    </person>
    <person id="ped41" depart="162.75" type="ped_pedestrian">
        <walk from="36902096" to="89810707#1"/>
    </person>
    <person id="ped42" depart="166.72" type="ped_pedestrian">
        <walk from="136174438#1" to="-764632711#0"/>
    </person>
    <person id="ped43" depart="170.69" type="ped_pedestrian">
        <walk from="9930063#3" to="22927205#7"/>
    </person>
    <person id="ped44" depart="174.66" type="ped_pedestrian">
        <walk from="-22660958#3" to="-1350418931#3"/>
    </person>
    <person id="ped45" depart="178.63" type="ped_pedestrian">
        <walk from="-24603106#3" to="37978179#2"/>
    </person>
    <person id="ped46" depart="182.60" type="ped_pedestrian">
        <walk from="700655215#0" to="159536695"/>
    </person>
    <person id="ped47" depart="186.57" type="ped_pedestrian">
        <walk from="-15796487#1" to="1317004547"/>
    </person>
    <person id="ped48" depart="190.54" type="ped_pedestrian">
        <walk from="9930062#1" to="25312124#4"/>
    </person>
    <person id="ped49" depart="194.51" type="ped_pedestrian">
        <walk from="963468013#1" to="80447908"/>
    </person>
    <person id="ped50" depart="198.48" type="ped_pedestrian">
        <walk from="-1105915850" to="4973846#2"/>
    </person>
    <person id="ped51" depart="202.45" type="ped_pedestrian">
        <walk from="444979518#0" to="25312130"/>
    </person>
    <person id="ped52" depart="206.42" type="ped_pedestrian">
        <walk from="-95452744" to="426101158"/>
    </person>
    <person id="ped53" depart="210.39" type="ped_pedestrian">
        <walk from="-25714143#1" to="167823338#1"/>
    </person>
    <person id="ped54" depart="214.35" type="ped_pedestrian">
        <walk from="19145587" to="956426893#2"/>
    </person>
    <person id="ped55" depart="218.32" type="ped_pedestrian">
        <walk from="851907068" to="-951670101#3"/>
    </person>
    <person id="ped56" depart="222.29" type="ped_pedestrian">
        <walk from="22660956#0" to="-445119478#1"/>
    </person>
    <person id="ped57" depart="226.26" type="ped_pedestrian">
        <walk from="942128688#2" to="8169196#0"/>
    </person>
    <person id="ped58" depart="230.23" type="ped_pedestrian">
        <walk from="1100949244" to="426101149"/>
    </person>
    <person id="ped59" depart="234.20" type="ped_pedestrian">
        <walk from="37853548#2" to="-37936057#0"/>
    </person>
    <person id="ped60" depart="238.17" type="ped_pedestrian">
        <walk from="562771766#5" to="25714138#1"/>
    </person>
    <person id="ped61" depart="242.14" type="ped_pedestrian">
        <walk from="632852335" to="25312125#1"/>
    </person>
    <person id="ped62" depart="246.11" type="ped_pedestrian">
        <walk from="-10055950#1" to="114470391#0"/>
    </person>
    <person id="ped63" depart="250.08" type="ped_pedestrian">
        <walk from="-1200010379#1" to="953195636#8"/>
    </person>
    <person id="ped64" depart="254.05" type="ped_pedestrian">
        <walk from="851907102#1" to="711052826#0"/>
    </person>
    <person id="ped65" depart="258.02" type="ped_pedestrian">
        <walk from="1104523334" to="-15601122#5"/>
    </person>
    <person id="ped66" depart="261.99" type="ped_pedestrian">
        <walk from="851907097" to="956426875#1"/>
    </person>
    <person id="ped67" depart="265.96" type="ped_pedestrian">
        <walk from="-219943894#0" to="221802420#5"/>
    </person>
    <person id="ped68" depart="269.93" type="ped_pedestrian">
        <walk from="-159621466" to="562771763#2"/>
    </person>
    <person id="ped69" depart="273.90" type="ped_pedestrian">
        <walk from="562771775" to="-36876062#1"/>
    </person>
    <person id="ped70" depart="277.87" type="ped_pedestrian">
        <walk from="221802415#0" to="25714184#0"/>
    </person>
    <person id="ped71" depart="281.84" type="ped_pedestrian">
        <walk from="-953778914#0" to="82406079"/>
    </person>
    <person id="ped72" depart="285.81" type="ped_pedestrian">
        <walk from="159617702" to="-711052822#0"/>
    </person>
    <person id="ped73" depart="289.78" type="ped_pedestrian">
        <walk from="25714138#1" to="500595757#0"/>
    </person>
    <person id="ped74" depart="293.75" type="ped_pedestrian">
        <walk from="-706124213#3" to="1104523340#1"/>
    </person>
    <person id="ped75" depart="297.71" type="ped_pedestrian">
        <walk from="9930061#4" to="426101177#3"/>
    </person>
    <person id="ped76" depart="301.68" type="ped_pedestrian">
        <walk from="17506465" to="23987295#1"/>
    </person>
    <person id="ped77" depart="305.65" type="ped_pedestrian">
        <walk from="-35838068#3" to="-8040312"/>
    </person>
    <person id="ped78" depart="309.62" type="ped_pedestrian">
        <walk from="1204763021" to="36906882#0"/>
    </person>
    <person id="ped79" depart="313.59" type="ped_pedestrian">
        <walk from="-80447907" to="-768165311"/>
    </person>
    <person id="ped80" depart="317.56" type="ped_pedestrian">
        <walk from="-160577165#0" to="41700286"/>
    </person>
    <person id="ped81" depart="321.53" type="ped_pedestrian">
        <walk from="-8040323#2" to="919145539#0"/>
    </person>
    <person id="ped82" depart="325.50" type="ped_pedestrian">
        <walk from="80447903" to="-160577165#0"/>
    </person>
    <person id="ped83" depart="329.47" type="ped_pedestrian">
        <walk from="-82406079" to="43839207"/>
    </person>
    <person id="ped84" depart="333.44" type="ped_pedestrian">
        <walk from="-711338710#0" to="-36906436#5"/>
    </person>
    <person id="ped85" depart="337.41" type="ped_pedestrian">
        <walk from="953778911#0" to="346912249#1"/>
    </person>
    <person id="ped86" depart="341.38" type="ped_pedestrian">
        <walk from="221802410#7" to="700653009#3"/>
    </person>
    <person id="ped87" depart="345.35" type="ped_pedestrian">
        <walk from="706124208" to="-5215887"/>
    </person>
    <person id="ped88" depart="349.32" type="ped_pedestrian">
        <walk from="-22927205#3" to="166560554#1"/>
    </person>
    <person id="ped89" depart="353.29" type="ped_pedestrian">
        <walk from="159618217" to="221802409#0"/>
    </person>
    <person id="ped90" depart="357.26" type="ped_pedestrian">
        <walk from="500595755" to="444979486#2"/>
    </person>
    <person id="ped91" depart="361.23" type="ped_pedestrian">
        <walk from="99185879#2" to="-22927205#8"/>
    </person>
    <person id="ped92" depart="365.20" type="ped_pedestrian">
        <walk from="14857484#0" to="1221727240#0"/>
    </person>
    <person id="ped93" depart="369.17" type="ped_pedestrian">
        <walk from="80581653#1" to="-89798045#0"/>
    </person>
    <person id="ped94" depart="373.14" type="ped_pedestrian">
        <walk from="-51972127#1" to="185581222#1"/>
    </person>
    <person id="ped95" depart="377.11" type="ped_pedestrian">
        <walk from="159536695" to="-97888153#3"/>
    </person>
    <person id="ped96" depart="381.08" type="ped_pedestrian">
        <walk from="-89802386#3" to="951670108"/>
    </person>
    <person id="ped97" depart="385.04" type="ped_pedestrian">
        <walk from="185581213#1" to="80540086"/>
    </person>
    <person id="ped98" depart="389.01" type="ped_pedestrian">
        <walk from="25714184#1" to="-14184140#1"/>
    </person>
    <person id="ped99" depart="392.98" type="ped_pedestrian">
        <walk from="9930066#1" to="711338695#1"/>
    </person>
    <person id="ped100" depart="396.95" type="ped_pedestrian">
        <walk from="956426924" to="953195636#0"/>
    </person>
    <person id="ped101" depart="400.92" type="ped_pedestrian">
        <walk from="8010411#0" to="-426101179#0"/>
    </person>
    <person id="ped102" depart="404.89" type="ped_pedestrian">
        <walk from="221802420#3" to="-711338705"/>
    </person>
    <person id="ped103" depart="408.86" type="ped_pedestrian">
        <walk from="13636727" to="-156512433"/>
    </person>
    <person id="ped104" depart="412.83" type="ped_pedestrian">
        <walk from="1316807894#3" to="99185879#5"/>
    </person>
    <person id="ped105" depart="416.80" type="ped_pedestrian">
        <walk from="-953778914#0" to="700653009#1"/>
    </person>
    <person id="ped106" depart="420.77" type="ped_pedestrian">
        <walk from="19145591#1" to="159617702"/>
    </person>
    <person id="ped107" depart="424.74" type="ped_pedestrian">
        <walk from="956426897#0" to="9930061#5"/>
    </person>
    <person id="ped108" depart="428.71" type="ped_pedestrian">
        <walk from="303691456#2" to="478475477"/>
    </person>
    <person id="ped109" depart="432.68" type="ped_pedestrian">
        <walk from="-37936065#1" to="1100943511#0"/>
    </person>
    <person id="ped110" depart="436.65" type="ped_pedestrian">
        <walk from="956426919" to="36846914#0"/>
    </person>
    <person id="ped111" depart="440.62" type="ped_pedestrian">
        <walk from="25714140#4" to="5105780#1"/>
    </person>
    <person id="ped112" depart="444.59" type="ped_pedestrian">
        <walk from="-15601122#3" to="36901981#2"/>
    </person>
    <person id="ped113" depart="448.56" type="ped_pedestrian">
        <walk from="22661028#2" to="8040309#0"/>
    </person>
    <person id="ped114" depart="452.53" type="ped_pedestrian">
        <walk from="-37977991" to="956426903#2"/>
    </person>
    <person id="ped115" depart="456.50" type="ped_pedestrian">
        <walk from="-19145591#0" to="-5049352#2"/>
    </person>
    <person id="ped116" depart="460.47" type="ped_pedestrian">
        <walk from="37363527#0" to="444979488#0"/>
    </person>
    <person id="ped117" depart="464.44" type="ped_pedestrian">
        <walk from="-8098646#3" to="-346912230"/>
    </person>
    <person id="ped118" depart="468.40" type="ped_pedestrian">
        <walk from="89751017#2" to="-89678615#1"/>
    </person>
    <person id="ped119" depart="472.37" type="ped_pedestrian">
        <walk from="37358677#1" to="37927843#1"/>
    </person>
    <person id="ped120" depart="476.34" type="ped_pedestrian">
        <walk from="15796487#0" to="36901981#1"/>
    </person>
    <person id="ped121" depart="480.31" type="ped_pedestrian">
        <walk from="24603066#1" to="953778905"/>
    </person>
    <person id="ped122" depart="484.28" type="ped_pedestrian">
        <walk from="-711052778" to="447888175#1"/>
    </person>
    <person id="ped123" depart="488.25" type="ped_pedestrian">
        <walk from="-851907086" to="1350418934"/>
    </person>
    <person id="ped124" depart="492.22" type="ped_pedestrian">
        <walk from="44052560" to="1101787890#0"/>
    </person>
    <person id="ped125" depart="496.19" type="ped_pedestrian">
        <walk from="1105915878" to="562771741"/>
    </person>
    <person id="ped126" depart="500.16" type="ped_pedestrian">
        <walk from="-17506453#0" to="205527933#2"/>
    </person>
    <person id="ped127" depart="504.13" type="ped_pedestrian">
        <walk from="9930064#2" to="9930062#1"/>
    </person>
    <person id="ped128" depart="508.10" type="ped_pedestrian">
        <walk from="-17506453#2" to="-711052823#3"/>
    </person>
    <person id="ped129" depart="512.07" type="ped_pedestrian">
        <walk from="-953778914#0" to="953778895"/>
    </person>
    <person id="ped130" depart="516.04" type="ped_pedestrian">
        <walk from="8579353#2" to="856148321"/>
    </person>
    <person id="ped131" depart="520.01" type="ped_pedestrian">
        <walk from="1309056985#7" to="-37978179#1"/>
    </person>
    <person id="ped132" depart="523.98" type="ped_pedestrian">
        <walk from="711052827#4" to="445119487#0"/>
    </person>
    <person id="ped133" depart="527.95" type="ped_pedestrian">
        <walk from="37853568#0" to="99185882#1"/>
    </person>
    <person id="ped134" depart="531.92" type="ped_pedestrian">
        <walk from="426101181#2" to="-1100949243"/>
    </person>
    <person id="ped135" depart="535.89" type="ped_pedestrian">
        <walk from="711052781#2" to="1101787888#1"/>
    </person>
    <person id="ped136" depart="539.86" type="ped_pedestrian">
        <walk from="42859018" to="953778919#2"/>
    </person>
    <person id="ped137" depart="543.83" type="ped_pedestrian">
        <walk from="-36921239#0" to="-303691456#0"/>
    </person>
    <person id="ped138" depart="547.80" type="ped_pedestrian">
        <walk from="-24603063#0" to="295660420#0"/>
    </person>
    <person id="ped139" depart="551.77" type="ped_pedestrian">
        <walk from="-956426908" to="37695367"/>
    </person>
    <person id="ped140" depart="555.73" type="ped_pedestrian">
        <walk from="478475473#1" to="-706124214#6"/>
    </person>
    <person id="ped141" depart="559.70" type="ped_pedestrian">
        <walk from="41745704#6" to="-951670102"/>
    </person>
    <person id="ped142" depart="563.67" type="ped_pedestrian">
        <walk from="224484940" to="919145539#0"/>
    </person>
    <person id="ped143" depart="567.64" type="ped_pedestrian">
        <walk from="732172177#0" to="-22661028#2"/>
    </person>
    <person id="ped144" depart="571.61" type="ped_pedestrian">
        <walk from="159618217" to="-96647837#1"/>
    </person>
    <person id="ped145" depart="575.58" type="ped_pedestrian">
        <walk from="-1064837707#0" to="58606696#0"/>
    </person>
    <person id="ped146" depart="579.55" type="ped_pedestrian">
        <walk from="421650095#4" to="-951670100#3"/>
    </person>
    <person id="ped147" depart="583.52" type="ped_pedestrian">
        <walk from="505081685" to="295659501#2"/>
    </person>
    <person id="ped148" depart="587.49" type="ped_pedestrian">
        <walk from="16144150#2" to="-1104523326#1"/>
    </person>
    <person id="ped149" depart="591.46" type="ped_pedestrian">
        <walk from="919145533#0" to="25714142#4"/>
    </person>
    <person id="ped150" depart="595.43" type="ped_pedestrian">
        <walk from="711338692#0" to="36901976"/>
    </person>
    <person id="ped151" depart="599.40" type="ped_pedestrian">
        <walk from="-37853579#1" to="-36846914#2"/>
    </person>
    <person id="ped152" depart="603.37" type="ped_pedestrian">
        <walk from="1104523336#0" to="913624609#0"/>
    </person>
    <person id="ped153" depart="607.34" type="ped_pedestrian">
        <walk from="700655218#2" to="80447908"/>
    </person>
    <person id="ped154" depart="611.31" type="ped_pedestrian">
        <walk from="913624609#0" to="-711052814#2"/>
    </person>
    <person id="ped155" depart="615.28" type="ped_pedestrian">
        <walk from="-89802386#2" to="-23987292#1"/>
    </person>
    <person id="ped156" depart="619.25" type="ped_pedestrian">
        <walk from="676249788#2" to="874143677"/>
    </person>
    <person id="ped157" depart="623.22" type="ped_pedestrian">
        <walk from="14874009#3" to="37935596"/>
    </person>
    <person id="ped158" depart="627.19" type="ped_pedestrian">
        <walk from="-37936065#0" to="953195640#0"/>
    </person>
    <person id="ped159" depart="631.16" type="ped_pedestrian">
        <walk from="8098646#0" to="96647837#3"/>
    </person>
    <person id="ped160" depart="635.13" type="ped_pedestrian">
        <walk from="706124213#4" to="860817829#1"/>
    </person>
    <person id="ped161" depart="639.09" type="ped_pedestrian">
        <walk from="-127674709#3" to="5049348#2"/>
    </person>
    <person id="ped162" depart="643.06" type="ped_pedestrian">
        <walk from="1191200166" to="953778889#0"/>
    </person>
    <person id="ped163" depart="647.03" type="ped_pedestrian">
        <walk from="700655223#1" to="8098640#3"/>
    </person>
    <person id="ped164" depart="651.00" type="ped_pedestrian">
        <walk from="706124213#4" to="-95452744"/>
    </person>
    <person id="ped165" depart="654.97" type="ped_pedestrian">
        <walk from="700653010#2" to="-24603066#1"/>
    </person>
    <person id="ped166" depart="658.94" type="ped_pedestrian">
        <walk from="82406079" to="8040323#2"/>
    </person>
    <person id="ped167" depart="662.91" type="ped_pedestrian">
        <walk from="-8033546#3" to="711052781#0"/>
    </person>
    <person id="ped168" depart="666.88" type="ped_pedestrian">
        <walk from="206563607" to="1104523330#0"/>
    </person>
    <person id="ped169" depart="670.85" type="ped_pedestrian">
        <walk from="700655218#0" to="-8040318#5"/>
    </person>
    <person id="ped170" depart="674.82" type="ped_pedestrian">
        <walk from="-1271828949" to="-562771780#1"/>
    </person>
    <person id="ped171" depart="678.79" type="ped_pedestrian">
        <walk from="1164960606" to="8098640#4"/>
    </person>
    <person id="ped172" depart="682.76" type="ped_pedestrian">
        <walk from="956426918#3" to="-98506321#2"/>
    </person>
    <person id="ped173" depart="686.73" type="ped_pedestrian">
        <walk from="426101159" to="136174438#2"/>
    </person>
    <person id="ped174" depart="690.70" type="ped_pedestrian">
        <walk from="99185872#1" to="25312129#0"/>
    </person>
    <person id="ped175" depart="694.67" type="ped_pedestrian">
        <walk from="953778919#3" to="-303691456#0"/>
    </person>
    <person id="ped176" depart="698.64" type="ped_pedestrian">
        <walk from="962072290#2" to="-445119478#0"/>
    </person>
    <person id="ped177" depart="702.61" type="ped_pedestrian">
        <walk from="956426907#0" to="-953778914#1"/>
    </person>
    <person id="ped178" depart="706.58" type="ped_pedestrian">
        <walk from="-24603066#2" to="167823338#0"/>
    </person>
    <person id="ped179" depart="710.55" type="ped_pedestrian">
        <walk from="500595752#2" to="1105915852"/>
    </person>
    <person id="ped180" depart="714.52" type="ped_pedestrian">
        <walk from="37695407#2" to="23555870#3"/>
    </person>
    <person id="ped181" depart="718.49" type="ped_pedestrian">
        <walk from="1319981006#1" to="35838074#1"/>
    </person>
    <person id="ped182" depart="722.45" type="ped_pedestrian">
        <walk from="-919145537" to="445169587#0"/>
    </person>
    <person id="ped183" depart="726.42" type="ped_pedestrian">
        <walk from="-1035862602" to="953195634#3"/>
    </person>
    <person id="ped184" depart="730.39" type="ped_pedestrian">
        <walk from="25366567#2" to="481969796#1"/>
    </person>
    <person id="ped185" depart="734.36" type="ped_pedestrian">
        <walk from="505081686#1" to="43943207#3"/>
    </person>
    <person id="ped186" depart="738.33" type="ped_pedestrian">
        <walk from="1292523309#1" to="-160141279"/>
    </person>
    <person id="ped187" depart="742.30" type="ped_pedestrian">
        <walk from="42859312#1" to="1164960613"/>
    </person>
    <person id="ped188" depart="746.27" type="ped_pedestrian">
        <walk from="1105915853" to="764632711#2"/>
    </person>
    <person id="ped189" depart="750.24" type="ped_pedestrian">
        <walk from="495397202" to="1101787890#1"/>
    </person>
    <person id="ped190" depart="754.21" type="ped_pedestrian">
        <walk from="1104523337#1" to="15437171#0"/>
    </person>
    <person id="ped191" depart="758.18" type="ped_pedestrian">
        <walk from="14857479" to="11005770#3"/>
    </person>
    <person id="ped192" depart="762.15" type="ped_pedestrian">
        <walk from="-36846914#2" to="159210807"/>
    </person>
    <person id="ped193" depart="766.12" type="ped_pedestrian">
        <walk from="953778919#7" to="444979497#1"/>
    </person>
    <person id="ped194" depart="770.09" type="ped_pedestrian">
        <walk from="919145531#2" to="37892474#1"/>
    </person>
    <person id="ped195" depart="774.06" type="ped_pedestrian">
        <walk from="1103210505#0" to="25714145#3"/>
    </person>
    <person id="ped196" depart="778.03" type="ped_pedestrian">
        <walk from="-10055950#1" to="1035862603#1"/>
    </person>
    <person id="ped197" depart="782.00" type="ped_pedestrian">
        <walk from="16189600#2" to="36847209#0"/>
    </person>
    <person id="ped198" depart="785.97" type="ped_pedestrian">
        <walk from="426101182#1" to="219943896#1"/>
    </person>
    <person id="ped199" depart="789.94" type="ped_pedestrian">
        <walk from="178292877#4" to="-711338705"/>
    </person>
    <person id="ped200" depart="793.91" type="ped_pedestrian">
        <walk from="221802410#8" to="919145530#0"/>
    </person>
    <person id="ped201" depart="797.88" type="ped_pedestrian">
        <walk from="700655218#2" to="-43838840#0"/>
    </person>
    <person id="ped202" depart="801.85" type="ped_pedestrian">
        <walk from="-219943891" to="23987292#0"/>
    </person>
    <person id="ped203" depart="805.82" type="ped_pedestrian">
        <walk from="41745704#2" to="1200010376"/>
    </person>
    <person id="ped204" depart="809.78" type="ped_pedestrian">
        <walk from="711052789" to="562771740#1"/>
    </person>
    <person id="ped205" depart="813.75" type="ped_pedestrian">
        <walk from="444979486#0" to="-8040312"/>
    </person>
    <person id="ped206" depart="817.72" type="ped_pedestrian">
        <walk from="-700648287#0" to="-127674709#2"/>
    </person>
    <person id="ped207" depart="821.69" type="ped_pedestrian">
        <walk from="-88221423" to="221802415#0"/>
    </person>
    <person id="ped208" depart="825.66" type="ped_pedestrian">
        <walk from="8033546#0" to="-17506453#1"/>
    </person>
    <person id="ped209" depart="829.63" type="ped_pedestrian">
        <walk from="15687520#1" to="41068782#1"/>
    </person>
    <person id="ped210" depart="833.60" type="ped_pedestrian">
        <walk from="-562771799#0" to="445119469#1"/>
    </person>
    <person id="ped211" depart="837.57" type="ped_pedestrian">
        <walk from="224570774#1" to="-874069897#2"/>
    </person>
    <person id="ped212" depart="841.54" type="ped_pedestrian">
        <walk from="426405633#1" to="-11005770#1"/>
    </person>
    <person id="ped213" depart="845.51" type="ped_pedestrian">
        <walk from="562771740#1" to="562771799#0"/>
    </person>
    <person id="ped214" depart="849.48" type="ped_pedestrian">
        <walk from="-24595638#2" to="159621466"/>
    </person>
    <person id="ped215" depart="853.45" type="ped_pedestrian">
        <walk from="-44052561" to="956426898"/>
    </person>
    <person id="ped216" depart="857.42" type="ped_pedestrian">
        <walk from="23987298" to="-14184140#0"/>
    </person>
    <person id="ped217" depart="861.39" type="ped_pedestrian">
        <walk from="-89802386#1" to="768165311"/>
    </person>
    <person id="ped218" depart="865.36" type="ped_pedestrian">
        <walk from="19794601#1" to="700655222#1"/>
    </person>
    <person id="ped219" depart="869.33" type="ped_pedestrian">
        <walk from="43838862#1" to="99185885#1"/>
    </person>
    <person id="ped220" depart="873.30" type="ped_pedestrian">
        <walk from="37363527#1" to="956426876#7"/>
    </person>
    <person id="ped221" depart="877.27" type="ped_pedestrian">
        <walk from="89798043#1" to="37869190#0"/>
    </person>
    <person id="ped222" depart="881.24" type="ped_pedestrian">
        <walk from="481969796#0" to="227358998#1"/>
    </person>
    <person id="ped223" depart="885.21" type="ped_pedestrian">
        <walk from="711052823#2" to="25714145#3"/>
    </person>
    <person id="ped224" depart="889.18" type="ped_pedestrian">
        <walk from="89810706#4" to="505081688#10"/>
    </person>
    <person id="ped225" depart="893.14" type="ped_pedestrian">
        <walk from="221802413#1" to="-93260797#1"/>
    </person>
    <person id="ped226" depart="897.11" type="ped_pedestrian">
        <walk from="-89686670" to="42507474"/>
    </person>
    <person id="ped227" depart="901.08" type="ped_pedestrian">
        <walk from="562771775" to="24595638#0"/>
    </person>
    <person id="ped228" depart="905.05" type="ped_pedestrian">
        <walk from="37977991" to="-963502534"/>
    </person>
    <person id="ped229" depart="909.02" type="ped_pedestrian">