<?xml version="1.0" encoding="UTF-8"?>

<!-- generated on 2025-01-23 05:32:37.787788 by osmWebWizard.py v1_21_0+0000-d7b3b481c43
<configuration>
    <net-file value="C:\Users\pc\Sumo\2025-01-23-05-32-24\osm.net.xml.gz"/>
    <output-trip-file value="C:\Users\pc\Sumo\2025-01-23-05-32-24\osm.passenger.trips.xml"/>
    <route-file value="C:\Users\pc\Sumo\2025-01-23-05-32-24\osm.passenger.rou.xml"/>
    <prefix value="veh"/>
    <trip-attributes value="departLane=&quot;best&quot;"/>
    <fringe-start-attributes value="departSpeed=&quot;max&quot;"/>
    <vehicle-class value="passenger"/>
    <lanes value="True"/>
    <fringe-factor value="5"/>
    <allow-fringe.min-length value="1000.0"/>
    <via-edge-types value="highway.motorway,highway.motorway_link,highway.trunk_link,highway.primary_link,highway.secondary_link,highway.tertiary_link"/>
    <min-distance value="300.0"/>
    <min-distance.fringe value="10.0"/>
    <remove-loops value="True"/>
    <validate value="True"/>
    <insertion-density value="12.0"/>
</configuration>
-->

<!-- generated on 2025-01-23 05:32:37 by Eclipse SUMO duarouter Version 1.21.0
<duarouterConfiguration xmlns:xsi="http://www.w3.org/2001/XMLSchema-instance" xsi:noNamespaceSchemaLocation="http://sumo.dlr.de/xsd/duarouterConfiguration.xsd">

    <input>
        <net-file value="C:\Users\pc\Sumo\2025-01-23-05-32-24\osm.net.xml.gz"/>
        <route-files value="C:\Users\pc\Sumo\2025-01-23-05-32-24\osm.passenger.trips.xml"/>
    </input>

    <output>
        <output-file value="C:\Users\pc\Sumo\2025-01-23-05-32-24\osm.passenger.trips.xml.tmp"/>
        <alternatives-output value="NUL"/>
        <write-trips value="true"/>
    </output>

    <processing>
        <remove-loops value="true"/>
    </processing>

    <time>
        <begin value="0.0"/>
        <end value="3600.0"/>
    </time>

    <report>
        <no-warnings value="true"/>
        <ignore-errors value="true"/>
        <no-step-log value="true"/>
    </report>

</duarouterConfiguration>
-->

<routes xmlns:xsi="http://www.w3.org/2001/XMLSchema-instance" xsi:noNamespaceSchemaLocation="http://sumo.dlr.de/xsd/routes_file.xsd">
    <vType id="veh_passenger" vClass="passenger"/>
    <trip id="veh0" type="veh_passenger" depart="0.00" departLane="best" departSpeed="max" from="205527930#0" to="-10423248#6"/>
    <trip id="veh1" type="veh_passenger" depart="5.99" departLane="best" from="5049325#0" to="-4984145"/>
    <trip id="veh2" type="veh_passenger" depart="11.99" departLane="best" departSpeed="max" from="4973489#0" to="32887535#0"/>
    <trip id="veh4" type="veh_passenger" depart="23.97" departLane="best" from="-8067687#7" to="10423252#0"/>
    <trip id="veh5" type="veh_passenger" depart="29.96" departLane="best" from="38031144#0" to="11005770#5"/>
    <trip id="veh6" type="veh_passenger" depart="35.96" departLane="best" from="-10423245#0" to="-445119456#0"/>
    <trip id="veh7" type="veh_passenger" depart="41.95" departLane="best" from="22661028#3" to="-2331704"/>
    <trip id="veh8" type="veh_passenger" depart="47.94" departLane="best" from="38031144#2" to="16189604#7"/>
    <trip id="veh9" type="veh_passenger" depart="53.93" departLane="best" from="-5049351#2" to="-1035862613#0"/>
    <trip id="veh11" type="veh_passenger" depart="65.92" departLane="best" departSpeed="max" from="-5215886#4" to="-301077360"/>
    <trip id="veh12" type="veh_passenger" depart="71.91" departLane="best" from="-1278869834" to="-16189578#3"/>
    <trip id="veh13" type="veh_passenger" depart="77.90" departLane="best" from="5215887" to="190443809"/>
    <trip id="veh15" type="veh_passenger" depart="89.89" departLane="best" from="-11005771#4" to="8098657#2"/>
    <trip id="veh16" type="veh_passenger" depart="95.88" departLane="best" from="-7988806#2" to="1221727235#0"/>
    <trip id="veh17" type="veh_passenger" depart="101.87" departLane="best" from="-5106516#1" to="220567437#1"/>
    <trip id="veh19" type="veh_passenger" depart="113.86" departLane="best" from="38031144#2" to="11005770#3"/>
    <trip id="veh20" type="veh_passenger" depart="119.85" departLane="best" from="-438901846#0" to="5215885"/>
    <trip id="veh21" type="veh_passenger" depart="125.84" departLane="best" from="-1105915895#1" to="5048797#1"/>
    <trip id="veh22" type="veh_passenger" depart="131.84" departLane="best" from="1313863063" to="5106516#2"/>
    <trip id="veh24" type="veh_passenger" depart="143.82" departLane="best" from="-711052798#2" to="-4973489#5"/>
    <trip id="veh25" type="veh_passenger" depart="149.81" departLane="best" from="-4984268#5" to="8033326#8"/>
    <trip id="veh27" type="veh_passenger" depart="161.80" departLane="best" departSpeed="max" from="-24603064#6" to="-4973489#5"/>
    <trip id="veh28" type="veh_passenger" depart="167.79" departLane="best" departSpeed="max" from="-23945454#5" to="-947113434#0"/>
    <trip id="veh29" type="veh_passenger" depart="173.78" departLane="best" from="9549963#1" to="24603064#4"/>
    <trip id="veh30" type="veh_passenger" depart="179.78" departLane="best" from="1174525655" to="342168290"/>
    <trip id="veh32" type="veh_passenger" depart="191.76" departLane="best" from="438901846#1" to="10423252#0"/>
    <trip id="veh33" type="veh_passenger" depart="197.75" departLane="best" departSpeed="max" from="-342168290" to="8033545#1"/>
    <trip id="veh34" type="veh_passenger" depart="203.75" departLane="best" from="-711052798#3" to="706072616#5"/>
    <trip id="veh35" type="veh_passenger" depart="209.74" departLane="best" from="24603064#2" to="956426913#0"/>
    <trip id="veh36" type="veh_passenger" depart="215.73" departLane="best" from="-8033326#14" to="1064837698"/>
    <trip id="veh37" type="veh_passenger" depart="221.72" departLane="best" from="-4984268#1" to="5049329#0"/>
    <trip id="veh38" type="veh_passenger" depart="227.72" departLane="best" from="1174525658" to="5049334#4"/>
    <trip id="veh39" type="veh_passenger" depart="233.71" departLane="best" from="-1298954045#2" to="717944160"/>
    <trip id="veh40" type="veh_passenger" depart="239.70" departLane="best" from="-8033545#0" to="-4976151#2"/>
    <trip id="veh41" type="veh_passenger" depart="245.69" departLane="best" departSpeed="max" from="9930081" to="11005771#0"/>
    <trip id="veh43" type="veh_passenger" depart="257.68" departLane="best" from="-159518063#1" to="-22661028#2"/>
    <trip id="veh44" type="veh_passenger" depart="263.67" departLane="best" from="-5049329#5" to="10423243#0"/>
    <trip id="veh45" type="veh_passenger" depart="269.66" departLane="best" from="-11005770#2" to="947113434#4"/>
    <trip id="veh46" type="veh_passenger" depart="275.66" departLane="best" from="-99185877#2" to="-22661028#0"/>
    <trip id="veh47" type="veh_passenger" depart="281.65" departLane="best" from="-934999881#1" to="5215933#1"/>
    <trip id="veh49" type="veh_passenger" depart="293.63" departLane="best" from="311837942#7" to="1174525660#0"/>
    <trip id="veh50" type="veh_passenger" depart="299.63" departLane="best" from="-4984268#5" to="24603064#5"/>
    <trip id="veh51" type="veh_passenger" depart="305.62" departLane="best" from="-159518063#4" to="10423248#3"/>
    <trip id="veh52" type="veh_passenger" depart="311.61" departLane="best" from="-99185877#2" to="8034597"/>
    <trip id="veh53" type="veh_passenger" depart="317.60" departLane="best" from="-711052798#2" to="5049334#5"/>
    <trip id="veh54" type="veh_passenger" depart="323.60" departLane="best" from="1064837711#2" to="32887535#1"/>
    <trip id="veh55" type="veh_passenger" depart="329.59" departLane="best" from="-8033326#12" to="55382820#1"/>
    <trip id="veh56" type="veh_passenger" depart="335.58" departLane="best" from="-5049334#2" to="24603064#2"/>
    <trip id="veh57" type="veh_passenger" depart="341.58" departLane="best" from="-5215886#2" to="25312122#6"/>
    <trip id="veh58" type="veh_passenger" depart="347.57" departLane="best" from="4984169#3" to="1174525662"/>
    <trip id="veh59" type="veh_passenger" depart="353.56" departLane="best" from="5048812#2" to="1174525655"/>
    <trip id="veh60" type="veh_passenger" depart="359.55" departLane="best" from="-10055949" to="717955852#1"/>
    <trip id="veh61" type="veh_passenger" depart="365.55" departLane="best" from="-1035862613#1" to="8010412#1"/>
    <trip id="veh62" type="veh_passenger" depart="371.54" departLane="best" from="-5049352#1" to="-1164960608#0"/>
    <trip id="veh63" type="veh_passenger" depart="377.53" departLane="best" from="717944156#1" to="8033547#1"/>
    <trip id="veh64" type="veh_passenger" depart="383.52" departLane="best" from="1164960608#1" to="1099493480"/>
    <trip id="veh65" type="veh_passenger" depart="389.52" departLane="best" departSpeed="max" from="-11005770#5" to="4984268#3"/>
    <trip id="veh66" type="veh_passenger" depart="395.51" departLane="best" from="4984268#2" to="-205527930#0"/>
    <trip id="veh67" type="veh_passenger" depart="401.50" departLane="best" from="-4984268#1" to="1065558969#2"/>
    <trip id="veh68" type="veh_passenger" depart="407.49" departLane="best" from="1105915895#1" to="-4973489#6"/>
    <trip id="veh69" type="veh_passenger" depart="413.49" departLane="best" from="-32887535#2" to="-706072616#0"/>
    <trip id="veh70" type="veh_passenger" depart="419.48" departLane="best" from="-99185877#1" to="25312122#7"/>
    <trip id="veh71" type="veh_passenger" depart="425.47" departLane="best" from="-9549066#0" to="1128668074"/>
    <trip id="veh72" type="veh_passenger" depart="431.46" departLane="best" from="-16189604#4" to="-4984169#2"/>
    <trip id="veh73" type="veh_passenger" depart="437.46" departLane="best" from="-5215886#0" to="16189604#6"/>
    <trip id="veh74" type="veh_passenger" depart="443.45" departLane="best" from="-438901846#3" to="4976151#3"/>
    <trip id="veh75" type="veh_passenger" depart="449.44" departLane="best" departSpeed="max" from="-11005770#5" to="22927206"/>
    <trip id="veh76" type="veh_passenger" depart="455.43" departLane="best" from="-438901846#1" to="717955852#0"/>
    <trip id="veh77" type="veh_passenger" depart="461.43" departLane="best" from="717955850#0" to="-1313863062"/>
    <trip id="veh78" type="veh_passenger" depart="467.42" departLane="best" from="-37811916#0" to="-224379941#0"/>
    <trip id="veh79" type="veh_passenger" depart="473.41" departLane="best" from="8034594#3" to="141696893#1"/>
    <trip id="veh80" type="veh_passenger" depart="479.40" departLane="best" from="10423247#3" to="5049329#4"/>
    <trip id="veh82" type="veh_passenger" depart="491.39" departLane="best" departSpeed="max" from="-1298954045#5" to="10423247#3"/>
    <trip id="veh83" type="veh_passenger" depart="497.38" departLane="best" from="-80698388#2" to="1064837710#1"/>
    <trip id="veh84" type="veh_passenger" depart="503.37" departLane="best" from="445119454#0" to="32887533#0"/>
    <trip id="veh85" type="veh_passenger" depart="509.37" departLane="best" from="-9549066#3" to="16189578#6"/>
    <trip id="veh86" type="veh_passenger" depart="515.36" departLane="best" from="-8033545#6" to="8033326#8"/>
    <trip id="veh88" type="veh_passenger" depart="527.34" departLane="best" from="-310980426" to="10423252#4"/>
    <trip id="veh89" type="veh_passenger" depart="533.34" departLane="best" from="-8067687#7" to="-5106516#3"/>
    <trip id="veh90" type="veh_passenger" depart="539.33" departLane="best" from="-4973846#6" to="7988809#2"/>
    <trip id="veh91" type="veh_passenger" depart="545.32" departLane="best" from="-9549066#3" to="5215933#10"/>
    <trip id="veh92" type="veh_passenger" depart="551.31" departLane="best" departSpeed="max" from="1164960608#0" to="11005771#3"/>
    <trip id="veh93" type="veh_passenger" depart="557.31" departLane="best" departSpeed="max" from="9930081" to="5106516#4"/>
    <trip id="veh94" type="veh_passenger" depart="563.30" departLane="best" departSpeed="max" from="881596374" to="8010412#1"/>
    <trip id="veh95" type="veh_passenger" depart="569.29" departLane="best" from="5215888#1" to="310980423#0"/>
    <trip id="veh96" type="veh_passenger" depart="575.28" departLane="best" from="1059552693#0" to="4973845#1"/>
    <trip id="veh97" type="veh_passenger" depart="581.28" departLane="best" from="-7988808" to="42691780#1"/>
    <trip id="veh98" type="veh_passenger" depart="587.27" departLane="best" from="-4984268#1" to="5049329#3"/>
    <trip id="veh100" type="veh_passenger" depart="599.25" departLane="best" from="8098657#0" to="-955385977#3"/>
    <trip id="veh101" type="veh_passenger" depart="605.25" departLane="best" from="1164960608#3" to="43394363#3"/>
    <trip id="veh102" type="veh_passenger" depart="611.24" departLane="best" from="-22889232" to="5215933#4"/>
    <trip id="veh103" type="veh_passenger" depart="617.23" departLane="best" departSpeed="max" from="881596374" to="16144153#1"/>
    <trip id="veh104" type="veh_passenger" depart="623.22" departLane="best" from="1128668075#0" to="4976151#4"/>
    <trip id="veh105" type="veh_passenger" depart="629.22" departLane="best" from="-11005769#2" to="16189578#7"/>
    <trip id="veh106" type="veh_passenger" depart="635.21" departLane="best" from="1064837712#0" to="5215885"/>
    <trip id="veh107" type="veh_passenger" depart="641.20" departLane="best" from="1174714318" to="8046040#2"/>
    <trip id="veh108" type="veh_passenger" depart="647.19" departLane="best" from="-1105915895#1" to="37811916#1"/>
    <trip id="veh111" type="veh_passenger" depart="665.17" departLane="best" from="-717955852#0" to="5049327"/>
    <trip id="veh113" type="veh_passenger" depart="677.16" departLane="best" from="-8067687#3" to="16189578#7"/>
    <trip id="veh114" type="veh_passenger" depart="683.15" departLane="best" from="11005769#1" to="8033326#5"/>
    <trip id="veh115" type="veh_passenger" depart="689.14" departLane="best" departSpeed="max" from="-342168290" to="43394363#0"/>
    <trip id="veh116" type="veh_passenger" depart="695.14" departLane="best" from="-445119456#1" to="956426913#0"/>
    <trip id="veh117" type="veh_passenger" depart="701.13" departLane="best" from="-5049391#0" to="4982588#0"/>
    <trip id="veh118" type="veh_passenger" depart="707.12" departLane="best" departSpeed="max" from="-11005770#5" to="1064837698"/>
    <trip id="veh119" type="veh_passenger" depart="713.11" departLane="best" departSpeed="max" from="9930081" to="727900569#1"/>
    <trip id="veh120" type="veh_passenger" depart="719.11" departLane="best" from="-4984268#1" to="8033326#15"/>
    <trip id="veh121" type="veh_passenger" depart="725.10" departLane="best" from="-717944159#3" to="32887533#0"/>
    <trip id="veh122" type="veh_passenger" depart="731.09" departLane="best" from="-711052798#2" to="-301077360"/>
    <trip id="veh123" type="veh_passenger" depart="737.08" departLane="best" from="-5122165#0" to="38089870#1"/>
    <trip id="veh125" type="veh_passenger" depart="749.07" departLane="best" from="-23987290" to="-1035862613#0"/>
    <trip id="veh126" type="veh_passenger" depart="755.06" departLane="best" from="29505715#1" to="8033543#1"/>
    <trip id="veh127" type="veh_passenger" depart="761.05" departLane="best" from="205527930#1" to="178292878#2"/>
    <trip id="veh128" type="veh_passenger" depart="767.05" departLane="best" from="-141696893#2" to="1221727235#1"/>
    <trip id="veh129" type="veh_passenger" depart="773.04" departLane="best" from="-5048812#1" to="190443809"/>
    <trip id="veh130" type="veh_passenger" depart="779.03" departLane="best" from="38089870#6" to="4973416#1"/>
    <trip id="veh131" type="veh_passenger" depart="785.02" departLane="best" from="19144698#1" to="5049351#1"/>
    <trip id="veh132" type="veh_passenger" depart="791.02" departLane="best" from="5215886#2" to="-16189578#0"/>
    <trip id="veh134" type="veh_passenger" depart="803.00" departLane="best" from="-4973750#1" to="1221714362"/>
    <trip id="veh135" type="veh_passenger" depart="808.99" departLane="best" from="-8098657#0" to="-10423243#0"/>
    <trip id="veh136" type="veh_passenger" depart="814.99" departLane="best" from="-11005771#2" to="706072616#4"/>
    <trip id="veh137" type="veh_passenger" depart="820.98" departLane="best" from="7976758#1" to="-2331704"/>
    <trip id="veh138" type="veh_passenger" depart="826.97" departLane="best" from="5122254#1" to="16189578#4"/>
    <trip id="veh139" type="veh_passenger" depart="832.96" departLane="best" from="224379941#1" to="-205527930#0"/>
    <trip id="veh140" type="veh_passenger" depart="838.96" departLane="best" departSpeed="max" from="-5049352#2" to="717944160"/>
    <trip id="veh141" type="veh_passenger" depart="844.95" departLane="best" from="5049333#2" to="5215933#1"/>
    <trip id="veh142" type="veh_passenger" depart="850.94" departLane="best" from="723682133#0" to="-4973489#6"/>
    <trip id="veh143" type="veh_passenger" depart="856.93" departLane="best" from="-4973846#6" to="16189604#4"/>
    <trip id="veh144" type="veh_passenger" depart="862.93" departLane="best" from="-22889232" to="8023239#2"/>
    <trip id="veh145" type="veh_passenger" depart="868.92" departLane="best" from="60671027#2" to="934999881#2"/>
    <trip id="veh146" type="veh_passenger" depart="874.91" departLane="best" from="-5049351#5" to="706072616#1"/>
    <trip id="veh147" type="veh_passenger" depart="880.90" departLane="best" from="10423244#2" to="4973846#2"/>
    <trip id="veh148" type="veh_passenger" depart="886.90" departLane="best" from="-51972126#0" to="8033326#11"/>
    <trip id="veh149" type="veh_passenger" depart="892.89" departLane="best" from="-5049334#3" to="5215933#5"/>
    <trip id="veh150" type="veh_passenger" depart="898.88" departLane="best" from="-706072616#5" to="5215887"/>
    <trip id="veh151" type="veh_passenger" depart="904.87" departLane="best" departSpeed="max" from="-42859310#1" to="5049391#0"/>
    <trip id="veh152" type="veh_passenger" depart="910.87" departLane="best" from="1035862613#0" to="-60671027#0"/>
    <trip id="veh153" type="veh_passenger" depart="916.86" departLane="best" from="5049333#0" to="-4984268#0"/>
    <trip id="veh154" type="veh_passenger" depart="922.85" departLane="best" from="10423244#0" to="-43394363#3"/>
    <trip id="veh155" type="veh_passenger" depart="928.84" departLane="best" departSpeed="max" from="-5122165#1" to="5215933#5"/>
    <trip id="veh156" type="veh_passenger" depart="934.84" departLane="best" departSpeed="max" from="881596374" to="5106516#4"/>
    <trip id="veh157" type="veh_passenger" depart="940.83" departLane="best" departSpeed="max" from="205527930#0" to="-9930081"/>
    <trip id="veh158" type="veh_passenger" depart="946.82" departLane="best" from="953778883#0" to="1174525660#0"/>
    <trip id="veh159" type="veh_passenger" depart="952.81" departLane="best" departSpeed="max" from="8034832#0" to="178292878#2"/>
    <trip id="veh160" type="veh_passenger" depart="958.81" departLane="best" from="89751018" to="-32887535#1"/>
    <trip id="veh161" type="veh_passenger" depart="964.80" departLane="best" departSpeed="max" from="881596374" to="5049351#3"/>
    <trip id="veh162" type="veh_passenger" depart="970.79" departLane="best" from="-438901846#3" to="706072616#4"/>
    <trip id="veh163" type="veh_passenger" depart="976.78" departLane="best" from="159518063#3" to="11005771#2"/>
    <trip id="veh164" type="veh_passenger" depart="982.78" departLane="best" departSpeed="max" from="-8010412#1" to="16144152#1"/>
    <trip id="veh166" type="veh_passenger" depart="994.76" departLane="best" from="-1105915892#2" to="43394363#4"/>
    <trip id="veh167" type="veh_passenger" depart="1000.76" departLane="best" from="-4973750#2" to="311837943#2"/>
    <trip id="veh168" type="veh_passenger" depart="1006.75" departLane="best" from="-706072616#1" to="1298954045#2"/>
    <trip id="veh169" type="veh_passenger" depart="1012.74" departLane="best" departSpeed="max" from="301077360" to="-7989476#0"/>
    <trip id="veh171" type="veh_passenger" depart="1024.73" departLane="best" from="41361082" to="532899156#0"/>
    <trip id="veh173" type="veh_passenger" depart="1036.71" departLane="best" from="-8033545#6" to="-5215933#3"/>
    <trip id="veh174" type="veh_passenger" depart="1042.70" departLane="best" departSpeed="max" from="-178292878#5" to="1035862613#1"/>
    <trip id="veh175" type="veh_passenger" depart="1048.70" departLane="best" departSpeed="max" from="8034832#0" to="32887535#1"/>
    <trip id="veh176" type="veh_passenger" depart="1054.69" departLane="best" from="7931045" to="220567436#0"/>
    <trip id="veh177" type="veh_passenger" depart="1060.68" departLane="best" from="5049351#1" to="1191239625"/>
    <trip id="veh179" type="veh_passenger" depart="1072.67" departLane="best" from="8169086#0" to="-16189578#1"/>
    <trip id="veh180" type="veh_passenger" depart="1078.66" departLane="best" from="24603064#1" to="1064837710#0"/>
    <trip id="veh181" type="veh_passenger" depart="1084.65" departLane="best" from="-9549066#3" to="4973845#1"/>
    <trip id="veh182" type="veh_passenger" depart="1090.64" departLane="best" from="10423247#4" to="717955845#1"/>
    <trip id="veh183" type="veh_passenger" depart="1096.64" departLane="best" from="5049333#0" to="311837943#0"/>
    <trip id="veh184" type="veh_passenger" depart="1102.63" departLane="best" from="1164960608#1" to="-1105915895#1"/>
    <trip id="veh185" type="veh_passenger" depart="1108.62" departLane="best" from="-178292878#0" to="8033326#15"/>
    <trip id="veh186" type="veh_passenger" depart="1114.61" departLane="best" from="-5049391#1" to="4981404#2"/>
    <trip id="veh187" type="veh_passenger" depart="1120.61" departLane="best" from="-301358407#4" to="-4984169#2"/>
    <trip id="veh188" type="veh_passenger" depart="1126.60" departLane="best" from="-4973750#1" to="1064837715#1"/>
    <trip id="veh190" type="veh_passenger" depart="1138.58" departLane="best" from="-8034833" to="22889232"/>
    <trip id="veh191" type="veh_passenger" depart="1144.58" departLane="best" from="-328257005#0" to="37927814#3"/>
    <trip id="veh194" type="veh_passenger" depart="1162.55" departLane="best" from="-4973846#7" to="5048797#3"/>
    <trip id="veh195" type="veh_passenger" depart="1168.55" departLane="best" departSpeed="max" from="-25312122#7" to="80422892#2"/>
    <trip id="veh196" type="veh_passenger" depart="1174.54" departLane="best" from="1099493482" to="11005771#2"/>
    <trip id="veh199" type="veh_passenger" depart="1192.52" departLane="best" departSpeed="max" from="301077360" to="9549066#3"/>
    <trip id="veh201" type="veh_passenger" depart="1204.50" departLane="best" from="-717955852#1" to="205528212"/>
    <trip id="veh202" type="veh_passenger" depart="1210.49" departLane="best" from="41361082" to="11005770#5"/>
    <trip id="veh203" type="veh_passenger" depart="1216.49" departLane="best" from="5106516#2" to="1191239625"/>
    <trip id="veh204" type="veh_passenger" depart="1222.48" departLane="best" from="723594536" to="-4976151#1"/>
    <trip id="veh205" type="veh_passenger" depart="1228.47" departLane="best" from="10423248#1" to="5049333#7"/>
    <trip id="veh206" type="veh_passenger" depart="1234.46" departLane="best" from="-4973845#1" to="24603064#1"/>
    <trip id="veh207" type="veh_passenger" depart="1240.46" departLane="best" from="4984268#2" to="1128668076"/>
    <trip id="veh208" type="veh_passenger" depart="1246.45" departLane="best" departSpeed="max" from="16193006#0" to="5049391#2"/>
    <trip id="veh211" type="veh_passenger" depart="1264.43" departLane="best" from="1128668075#0" to="-22661028#3"/>
    <trip id="veh212" type="veh_passenger" depart="1270.42" departLane="best" from="-445119454#0" to="37811916#2"/>
    <trip id="veh213" type="veh_passenger" depart="1276.41" departLane="best" departSpeed="max" from="38089869#0" to="-1164960608#2"/>
    <trip id="veh214" type="veh_passenger" depart="1282.40" departLane="best" from="8034594#3" to="1174714259"/>
    <trip id="veh215" type="veh_passenger" depart="1288.40" departLane="best" from="-8046040#0" to="-4973489#0"/>
    <trip id="veh216" type="veh_passenger" depart="1294.39" departLane="best" from="-8067687#5" to="55382820#1"/>
    <trip id="veh218" type="veh_passenger" depart="1306.37" departLane="best" from="-532899156#0" to="4982588#3"/>
    <trip id="veh219" type="veh_passenger" depart="1312.37" departLane="best" from="-5215933#7" to="8034597"/>
    <trip id="veh220" type="veh_passenger" depart="1318.36" departLane="best" from="-8067687#3" to="4976151#4"/>
    <trip id="veh221" type="veh_passenger" depart="1324.35" departLane="best" departSpeed="max" from="-51972127#1" to="32887535#3"/>
    <trip id="veh222" type="veh_passenger" depart="1330.35" departLane="best" from="10423244#2" to="-205527930#0"/>
    <trip id="veh223" type="veh_passenger" depart="1336.34" departLane="best" from="-16189604#4" to="-10423250#0"/>
    <trip id="veh224" type="veh_passenger" depart="1342.33" departLane="best" from="-8033326#7" to="1298954045#5"/>
    <trip id="veh225" type="veh_passenger" depart="1348.32" departLane="best" from="-10423245#1" to="24603064#6"/>
    <trip id="veh226" type="veh_passenger" depart="1354.32" departLane="best" departSpeed="max" from="-205528212" to="1064837699#0"/>
    <trip id="veh227" type="veh_passenger" depart="1360.31" departLane="best" from="4984169#1" to="-947113434#0"/>
    <trip id="veh228" type="veh_passenger" depart="1366.30" departLane="best" from="-4973846#8" to="5079615"/>
    <trip id="veh229" type="veh_passenger" depart="1372.29" departLane="best" from="-4976151#1" to="-14153732#2"/>
    <trip id="veh230" type="veh_passenger" depart="1378.29" departLane="best" departSpeed="max" from="9930081" to="-8033548"/>
    <trip id="veh231" type="veh_passenger" depart="1384.28" departLane="best" from="-22889232" to="5049329#1"/>
    <trip id="veh232" type="veh_passenger" depart="1390.27" departLane="best" from="23945454#1" to="-4984145"/>
    <trip id="veh233" type="veh_passenger" depart="1396.26" departLane="best" from="8067687#6" to="-445119456#0"/>
    <trip id="veh234" type="veh_passenger" depart="1402.26" departLane="best" from="10423243#0" to="25312122#5"/>
    <trip id="veh235" type="veh_passenger" depart="1408.25" departLane="best" from="-178292878#0" to="311837943#1"/>
    <trip id="veh236" type="veh_passenger" depart="1414.24" departLane="best" from="1174525660#0" to="4973846#8"/>
    <trip id="veh237" type="veh_passenger" depart="1420.23" departLane="best" from="-37811916#1" to="4990970#2"/>
    <trip id="veh238" type="veh_passenger" depart="1426.23" departLane="best" from="-4973846#5" to="-17696811"/>
    <trip id="veh239" type="veh_passenger" depart="1432.22" departLane="best" from="-5049391#2" to="8067687#7"/>
    <trip id="veh240" type="veh_passenger" depart="1438.21" departLane="best" departSpeed="max" from="-5049352#2" to="32887535#1"/>
    <trip id="veh241" type="veh_passenger" depart="1444.20" departLane="best" from="-8098657#2" to="956426913#1"/>
    <trip id="veh243" type="veh_passenger" depart="1456.19" departLane="best" from="-32887535#1" to="-22661028#2"/>
    <trip id="veh244" type="veh_passenger" depart="1462.18" departLane="best" from="-5215933#10" to="190443809"/>
    <trip id="veh245" type="veh_passenger" depart="1468.17" departLane="best" from="-16189604#4" to="947113434#4"/>
    <trip id="veh246" type="veh_passenger" depart="1474.17" departLane="best" from="5049325#4" to="8033545#6"/>
    <trip id="veh247" type="veh_passenger" depart="1480.16" departLane="best" from="-8098657#1" to="-80698388#1"/>
    <trip id="veh248" type="veh_passenger" depart="1486.15" departLane="best" from="-5215933#1" to="5056871#0"/>
    <trip id="veh249" type="veh_passenger" depart="1492.14" departLane="best" from="14153732#4" to="8046040#2"/>
    <trip id="veh251" type="veh_passenger" depart="1504.13" departLane="best" departSpeed="max" from="38089869#0" to="10423248#4"/>
    <trip id="veh254" type="veh_passenger" depart="1522.11" departLane="best" from="947113434#1" to="-4973489#7"/>
    <trip id="veh255" type="veh_passenger" depart="1528.10" departLane="best" from="-4990967#0" to="51972127#1"/>
    <trip id="veh256" type="veh_passenger" depart="1534.09" departLane="best" from="-5106516#2" to="-159518063#0"/>
    <trip id="veh257" type="veh_passenger" depart="1540.08" departLane="best" from="717955844#0" to="-5049326#3"/>
    <trip id="veh259" type="veh_passenger" depart="1552.07" departLane="best" from="-7988808" to="-10423250#2"/>
    <trip id="veh260" type="veh_passenger" depart="1558.06" departLane="best" from="-5215933#2" to="-344273853#0"/>
    <trip id="veh262" type="veh_passenger" depart="1570.05" departLane="best" departSpeed="max" from="-5215886#4" to="688151015"/>
    <trip id="veh263" type="veh_passenger" depart="1576.04" departLane="best" from="37927814#1" to="5049391#3"/>
    <trip id="veh265" type="veh_passenger" depart="1588.02" departLane="best" from="1164960608#1" to="438901846#0"/>
    <trip id="veh266" type="veh_passenger" depart="1594.02" departLane="best" from="1064837698" to="-4984268#0"/>
    <trip id="veh267" type="veh_passenger" depart="1600.01" departLane="best" from="-32887535#1" to="25312122#0"/>
    <trip id="veh268" type="veh_passenger" depart="1606.00" departLane="best" from="1064837699#0" to="5049333#7"/>
    <trip id="veh269" type="veh_passenger" depart="1611.99" departLane="best" from="-1278869834" to="4981404#1"/>
    <trip id="veh270" type="veh_passenger" depart="1617.99" departLane="best" from="-32887535#2" to="-60671027#3"/>
    <trip id="veh272" type="veh_passenger" depart="1629.97" departLane="best" from="-4973846#1" to="7989476#1"/>
    <trip id="veh273" type="veh_passenger" depart="1635.96" departLane="best" from="38031144#0" to="5049391#0"/>
    <trip id="veh276" type="veh_passenger" depart="1653.94" departLane="best" from="-11005771#4" to="4984268#6"/>
    <trip id="veh277" type="veh_passenger" depart="1659.94" departLane="best" departSpeed="max" from="-303691431#1" to="4973846#6"/>
    <trip id="veh279" type="veh_passenger" depart="1671.92" departLane="best" from="935001253" to="1164560231"/>